GSH
  CCTOOLS-1004241126

 37 36  0  0  0  0  0  0  0  0999 V2000
    5.1954    2.2285    0.1308 N   0  0  0  1  0  0  0  0  0  0  0  0
    4.9260    0.7861    0.3797 C   0  0  0  1  0  0  0  0  0  0  0  0
    5.8839   -0.0816   -0.4152 C   0  0  0  1  0  0  0  0  0  0  0  0
    6.7899    0.4428   -1.0679 O   0  0  0  1  0  0  0  0  0  0  0  0
    5.7277   -1.3455   -0.2884 O   0  0  0  1  0  0  0  0  0  0  0  0
    3.5072    0.4135   -0.0051 C   0  0  0  1  0  0  0  0  0  0  0  0
    2.4581    0.9864    0.9337 C   0  0  0  1  0  0  0  0  0  0  0  0
    1.0395    0.7596    0.4485 C   0  0  0  1  0  0  0  0  0  0  0  0
    0.7127    1.0136   -0.7101 O   0  0  0  1  0  0  0  0  0  0  0  0
    0.1870    0.2729    1.3547 N   0  0  0  1  0  0  0  0  0  0  0  0
   -1.2369    0.1479    1.0925 C   0  0  0  1  0  0  0  0  0  0  0  0
   -1.8809    1.4436    0.6190 C   0  0  0  1  0  0  0  0  0  0  0  0
   -2.9097    1.4366   -0.0366 O   0  0  0  1  0  0  0  0  0  0  0  0
   -1.9411   -0.3299    2.3450 C   0  0  0  1  0  0  0  0  0  0  0  0
   -1.1763   -1.7964    3.0767 S   0  0  0  1  0  0  0  0  0  0  0  0
   -1.2482    2.5675    0.9678 N   0  0  0  1  0  0  0  0  0  0  0  0
   -1.6025    3.8642    0.4101 C   0  0  0  1  0  0  0  0  0  0  0  0
   -0.7160    5.0120    0.8522 C   0  0  0  1  0  0  0  0  0  0  0  0
    0.3031    4.8530    1.4883 O   0  0  0  1  0  0  0  0  0  0  0  0
   -1.1751    6.1775    0.4711 O   0  0  0  1  0  0  0  0  0  0  0  0
    4.6299    2.7729    0.7175 H   0  0  0  1  0  0  0  0  0  0  0  0
    4.9952    2.4413   -0.8047 H   0  0  0  1  0  0  0  0  0  0  0  0
    5.0614    0.5803    1.4210 H   0  0  0  1  0  0  0  0  0  0  0  0
    5.0666   -1.6511   -0.9138 H   0  0  0  1  0  0  0  0  0  0  0  0
    3.4227   -0.6532    0.0022 H   0  0  0  1  0  0  0  0  0  0  0  0
    3.3159    0.7801   -0.9919 H   0  0  0  1  0  0  0  0  0  0  0  0
    2.6222    2.0397    1.0257 H   0  0  0  1  0  0  0  0  0  0  0  0
    2.5686    0.5227    1.8916 H   0  0  0  1  0  0  0  0  0  0  0  0
    0.5339   -0.0097    2.2266 H   0  0  0  1  0  0  0  0  0  0  0  0
   -1.3844   -0.5903    0.3322 H   0  0  0  1  0  0  0  0  0  0  0  0
   -2.9553   -0.5634    2.0967 H   0  0  0  1  0  0  0  0  0  0  0  0
   -1.9228    0.4593    3.0673 H   0  0  0  1  0  0  0  0  0  0  0  0
   -1.7665   -2.0732    4.2360 H   0  0  0  1  0  0  0  0  0  0  0  0
   -0.5203    2.5169    1.6220 H   0  0  0  1  0  0  0  0  0  0  0  0
   -2.6071    4.0884    0.7023 H   0  0  0  1  0  0  0  0  0  0  0  0
   -1.5479    3.7936   -0.6561 H   0  0  0  1  0  0  0  0  0  0  0  0
   -0.8893    6.3561   -0.4278 H   0  0  0  1  0  0  0  0  0  0  0  0
  1  2  1  0  0  0  0
  1 21  1  0  0  0  0
  1 22  1  0  0  0  0
  2  3  1  0  0  0  0
  2  6  1  0  0  0  0
  2 23  1  0  0  0  0
  3  4  2  0  0  0  0
  3  5  1  0  0  0  0
  5 24  1  0  0  0  0
  6  7  1  0  0  0  0
  6 25  1  0  0  0  0
  6 26  1  0  0  0  0
  7  8  1  0  0  0  0
  7 27  1  0  0  0  0
  7 28  1  0  0  0  0
  8  9  2  0  0  0  0
  8 10  1  0  0  0  0
 10 11  1  0  0  0  0
 10 29  1  0  0  0  0
 11 12  1  0  0  0  0
 11 14  1  0  0  0  0
 11 30  1  0  0  0  0
 12 13  2  0  0  0  0
 12 16  1  0  0  0  0
 14 15  1  0  0  0  0
 14 31  1  0  0  0  0
 14 32  1  0  0  0  0
 15 33  1  0  0  0  0
 16 17  1  0  0  0  0
 16 34  1  0  0  0  0
 17 18  1  0  0  0  0
 17 35  1  0  0  0  0
 17 36  1  0  0  0  0
 18 19  2  0  0  0  0
 18 20  1  0  0  0  0
 20 37  1  0  0  0  0
M  END
> <ConfClashScore>
0 

> <ConfOneFourInteractionScore>
-0.953022 

> <ConfScore>
-0.160352 

> <ConfScorePBest>
0.028962 

> <ConfTolerance>
0.595213 

$$$$
GSH
  CCTOOLS-1004241126

 37 36  0  0  0  0  0  0  0  0999 V2000
    5.1826    2.2267    0.1602 N   0  0  0  1  0  0  0  0  0  0  0  0
    4.9204    0.7770    0.3790 C   0  0  0  1  0  0  0  0  0  0  0  0
    5.9051   -0.0562   -0.4383 C   0  0  0  1  0  0  0  0  0  0  0  0
    6.4736    0.5440   -1.3807 O   0  0  0  1  0  0  0  0  0  0  0  0
    6.1045   -1.2568   -0.1545 O   0  0  0  1  0  0  0  0  0  0  0  0
    3.4792    0.4485    0.0401 C   0  0  0  1  0  0  0  0  0  0  0  0
    3.0719   -0.9600    0.4408 C   0  0  0  1  0  0  0  0  0  0  0  0
    1.5725   -1.1440    0.3097 C   0  0  0  1  0  0  0  0  0  0  0  0
    0.9051   -0.4324   -0.4398 O   0  0  0  1  0  0  0  0  0  0  0  0
    1.0374   -2.1219    1.0575 N   0  0  0  1  0  0  0  0  0  0  0  0
   -0.4005   -2.3460    1.0471 C   0  0  0  1  0  0  0  0  0  0  0  0
   -1.1414   -1.5308    2.0763 C   0  0  0  1  0  0  0  0  0  0  0  0
   -2.2047   -0.9677    1.8750 O   0  0  0  1  0  0  0  0  0  0  0  0
   -0.6843   -3.8155    1.2768 C   0  0  0  1  0  0  0  0  0  0  0  0
   -0.1890   -4.3886    2.9192 S   0  0  0  1  0  0  0  0  0  0  0  0
   -0.5219   -1.4738    3.2587 N   0  0  0  1  0  0  0  0  0  0  0  0
   -1.0777   -0.7517    4.3934 C   0  0  0  1  0  0  0  0  0  0  0  0
   -1.0756    0.7503    4.2523 C   0  0  0  1  0  0  0  0  0  0  0  0
   -0.5561    1.3651    3.3675 O   0  0  0  1  0  0  0  0  0  0  0  0
   -1.7394    1.2861    5.2616 O   0  0  0  1  0  0  0  0  0  0  0  0
    4.5301    2.7568    0.6638 H   0  0  0  1  0  0  0  0  0  0  0  0
    5.1031    2.4324   -0.7946 H   0  0  0  1  0  0  0  0  0  0  0  0
    5.0784    0.5557    1.4138 H   0  0  0  1  0  0  0  0  0  0  0  0
    5.2844   -1.6556    0.1455 H   0  0  0  1  0  0  0  0  0  0  0  0
    3.3470    0.5522   -1.0167 H   0  0  0  1  0  0  0  0  0  0  0  0
    2.8441    1.1431    0.5492 H   0  0  0  1  0  0  0  0  0  0  0  0
    3.3590   -1.1324    1.4571 H   0  0  0  1  0  0  0  0  0  0  0  0
    3.5686   -1.6630   -0.1948 H   0  0  0  1  0  0  0  0  0  0  0  0
    1.6162   -2.6862    1.6116 H   0  0  0  1  0  0  0  0  0  0  0  0
   -0.7832   -2.0854    0.0825 H   0  0  0  1  0  0  0  0  0  0  0  0
   -0.1509   -4.3835    0.5434 H   0  0  0  1  0  0  0  0  0  0  0  0
   -1.7352   -3.9809    1.1617 H   0  0  0  1  0  0  0  0  0  0  0  0
   -1.1998   -5.0423    3.4848 H   0  0  0  1  0  0  0  0  0  0  0  0
    0.3366   -1.9341    3.3656 H   0  0  0  1  0  0  0  0  0  0  0  0
   -0.5053   -1.0048    5.2613 H   0  0  0  1  0  0  0  0  0  0  0  0
   -2.0900   -1.0715    4.5275 H   0  0  0  1  0  0  0  0  0  0  0  0
   -2.6303    1.5050    4.9791 H   0  0  0  1  0  0  0  0  0  0  0  0
  1  2  1  0  0  0  0
  1 21  1  0  0  0  0
  1 22  1  0  0  0  0
  2  3  1  0  0  0  0
  2  6  1  0  0  0  0
  2 23  1  0  0  0  0
  3  4  2  0  0  0  0
  3  5  1  0  0  0  0
  5 24  1  0  0  0  0
  6  7  1  0  0  0  0
  6 25  1  0  0  0  0
  6 26  1  0  0  0  0
  7  8  1  0  0  0  0
  7 27  1  0  0  0  0
  7 28  1  0  0  0  0
  8  9  2  0  0  0  0
  8 10  1  0  0  0  0
 10 11  1  0  0  0  0
 10 29  1  0  0  0  0
 11 12  1  0  0  0  0
 11 14  1  0  0  0  0
 11 30  1  0  0  0  0
 12 13  2  0  0  0  0
 12 16  1  0  0  0  0
 14 15  1  0  0  0  0
 14 31  1  0  0  0  0
 14 32  1  0  0  0  0
 15 33  1  0  0  0  0
 16 17  1  0  0  0  0
 16 34  1  0  0  0  0
 17 18  1  0  0  0  0
 17 35  1  0  0  0  0
 17 36  1  0  0  0  0
 18 19  2  0  0  0  0
 18 20  1  0  0  0  0
 20 37  1  0  0  0  0
M  END
> <ConfClashScore>
0 

> <ConfOneFourInteractionScore>
-0.966888 

> <ConfScore>
-0.135709 

> <ConfScorePBest>
0.0285962 

> <ConfTolerance>
0.741626 

$$$$
GSH
  CCTOOLS-1004241126

 37 36  0  0  0  0  0  0  0  0999 V2000
    4.7600    2.2655    0.2065 N   0  0  0  1  0  0  0  0  0  0  0  0
    4.7903    0.7877    0.3891 C   0  0  0  1  0  0  0  0  0  0  0  0
    6.0138    0.2130   -0.2866 C   0  0  0  1  0  0  0  0  0  0  0  0
    6.7900    0.8876   -0.9430 O   0  0  0  1  0  0  0  0  0  0  0  0
    6.1402   -1.0748   -0.0870 O   0  0  0  1  0  0  0  0  0  0  0  0
    3.5054    0.1676   -0.1351 C   0  0  0  1  0  0  0  0  0  0  0  0
    2.3559    0.2335    0.8573 C   0  0  0  1  0  0  0  0  0  0  0  0
    1.0988   -0.4506    0.3564 C   0  0  0  1  0  0  0  0  0  0  0  0
    0.1509    0.1938   -0.0612 O   0  0  0  1  0  0  0  0  0  0  0  0
    1.1059   -1.7921    0.4056 N   0  0  0  1  0  0  0  0  0  0  0  0
    0.0305   -2.5963   -0.1554 C   0  0  0  1  0  0  0  0  0  0  0  0
   -1.3015   -2.2095    0.4803 C   0  0  0  1  0  0  0  0  0  0  0  0
   -2.3450   -2.2712   -0.1488 O   0  0  0  1  0  0  0  0  0  0  0  0
    0.3025   -4.0711    0.0369 C   0  0  0  1  0  0  0  0  0  0  0  0
    1.8428   -4.6695   -0.6983 S   0  0  0  1  0  0  0  0  0  0  0  0
   -1.2417   -1.8040    1.7587 N   0  0  0  1  0  0  0  0  0  0  0  0
   -2.4126   -1.3250    2.4779 C   0  0  0  1  0  0  0  0  0  0  0  0
   -2.6535    0.1507    2.2794 C   0  0  0  1  0  0  0  0  0  0  0  0
   -1.9111    0.8638    1.6246 O   0  0  0  1  0  0  0  0  0  0  0  0
   -3.7369    0.5691    2.8839 O   0  0  0  1  0  0  0  0  0  0  0  0
    4.6841    2.4757   -0.7477 H   0  0  0  1  0  0  0  0  0  0  0  0
    5.5858    2.6554    0.5620 H   0  0  0  1  0  0  0  0  0  0  0  0
    4.8595    0.5760    1.4357 H   0  0  0  1  0  0  0  0  0  0  0  0
    5.6720   -1.3225    0.7136 H   0  0  0  1  0  0  0  0  0  0  0  0
    3.6946   -0.8596   -0.3673 H   0  0  0  1  0  0  0  0  0  0  0  0
    3.2160    0.6874   -1.0244 H   0  0  0  1  0  0  0  0  0  0  0  0
    2.1306    1.2617    1.0496 H   0  0  0  1  0  0  0  0  0  0  0  0
    2.6629   -0.2409    1.7660 H   0  0  0  1  0  0  0  0  0  0  0  0
    1.8615   -2.2457    0.8342 H   0  0  0  1  0  0  0  0  0  0  0  0
   -0.0351   -2.4060   -1.2063 H   0  0  0  1  0  0  0  0  0  0  0  0
   -0.5073   -4.6171   -0.4002 H   0  0  0  1  0  0  0  0  0  0  0  0
    0.3391   -4.2670    1.0881 H   0  0  0  1  0  0  0  0  0  0  0  0
    2.5733   -5.2756    0.2333 H   0  0  0  1  0  0  0  0  0  0  0  0
   -0.3795   -1.8315    2.2237 H   0  0  0  1  0  0  0  0  0  0  0  0
   -2.2730   -1.5117    3.5222 H   0  0  0  1  0  0  0  0  0  0  0  0
   -3.2708   -1.8616    2.1308 H   0  0  0  1  0  0  0  0  0  0  0  0
   -4.5008    0.3958    2.3289 H   0  0  0  1  0  0  0  0  0  0  0  0
  1  2  1  0  0  0  0
  1 21  1  0  0  0  0
  1 22  1  0  0  0  0
  2  3  1  0  0  0  0
  2  6  1  0  0  0  0
  2 23  1  0  0  0  0
  3  4  2  0  0  0  0
  3  5  1  0  0  0  0
  5 24  1  0  0  0  0
  6  7  1  0  0  0  0
  6 25  1  0  0  0  0
  6 26  1  0  0  0  0
  7  8  1  0  0  0  0
  7 27  1  0  0  0  0
  7 28  1  0  0  0  0
  8  9  2  0  0  0  0
  8 10  1  0  0  0  0
 10 11  1  0  0  0  0
 10 29  1  0  0  0  0
 11 12  1  0  0  0  0
 11 14  1  0  0  0  0
 11 30  1  0  0  0  0
 12 13  2  0  0  0  0
 12 16  1  0  0  0  0
 14 15  1  0  0  0  0
 14 31  1  0  0  0  0
 14 32  1  0  0  0  0
 15 33  1  0  0  0  0
 16 17  1  0  0  0  0
 16 34  1  0  0  0  0
 17 18  1  0  0  0  0
 17 35  1  0  0  0  0
 17 36  1  0  0  0  0
 18 19  2  0  0  0  0
 18 20  1  0  0  0  0
 20 37  1  0  0  0  0
M  END
> <ConfClashScore>
0 

> <ConfOneFourInteractionScore>
-0.958466 

> <ConfScore>
-0.0995942 

> <ConfScorePBest>
0.0282304 

> <ConfTolerance>
0.629178 

$$$$
GSH
  CCTOOLS-1004241126

 37 36  0  0  0  0  0  0  0  0999 V2000
    5.0478    2.2474    0.3015 N   0  0  0  1  0  0  0  0  0  0  0  0
    4.8858    0.7715    0.4180 C   0  0  0  1  0  0  0  0  0  0  0  0
    5.8696    0.1071   -0.5173 C   0  0  0  1  0  0  0  0  0  0  0  0
    6.3892   -0.9712   -0.2045 O   0  0  0  1  0  0  0  0  0  0  0  0
    6.1183    0.7123   -1.6114 O   0  0  0  1  0  0  0  0  0  0  0  0
    3.4346    0.4341    0.1173 C   0  0  0  1  0  0  0  0  0  0  0  0
    3.0609   -0.9945    0.4776 C   0  0  0  1  0  0  0  0  0  0  0  0
    1.6710   -1.4290    0.0551 C   0  0  0  1  0  0  0  0  0  0  0  0
    1.1481   -0.9847   -0.9537 O   0  0  0  1  0  0  0  0  0  0  0  0
    1.0698   -2.3215    0.8577 N   0  0  0  1  0  0  0  0  0  0  0  0
   -0.2288   -2.8984    0.5437 C   0  0  0  1  0  0  0  0  0  0  0  0
   -1.3437   -2.4554    1.4865 C   0  0  0  1  0  0  0  0  0  0  0  0
   -1.2061   -2.5062    2.6976 O   0  0  0  1  0  0  0  0  0  0  0  0
   -0.1468   -4.4040    0.4315 C   0  0  0  1  0  0  0  0  0  0  0  0
    0.3743   -5.2585    1.9380 S   0  0  0  1  0  0  0  0  0  0  0  0
   -2.4657   -2.0141    0.8961 N   0  0  0  1  0  0  0  0  0  0  0  0
   -3.6211   -1.5661    1.6591 C   0  0  0  1  0  0  0  0  0  0  0  0
   -4.8067   -1.2447    0.7839 C   0  0  0  1  0  0  0  0  0  0  0  0
   -4.8043   -1.2277   -0.4120 O   0  0  0  1  0  0  0  0  0  0  0  0
   -5.8549   -0.9832    1.5451 O   0  0  0  1  0  0  0  0  0  0  0  0
    4.1792    2.6574    0.1067 H   0  0  0  1  0  0  0  0  0  0  0  0
    5.6748    2.4508   -0.4236 H   0  0  0  1  0  0  0  0  0  0  0  0
    5.1072    0.4727    1.4213 H   0  0  0  1  0  0  0  0  0  0  0  0
    6.8999    1.2594   -1.5045 H   0  0  0  1  0  0  0  0  0  0  0  0
    3.2631    0.5760   -0.9293 H   0  0  0  1  0  0  0  0  0  0  0  0
    2.8091    1.0994    0.6751 H   0  0  0  1  0  0  0  0  0  0  0  0
    3.1295   -1.0955    1.5406 H   0  0  0  1  0  0  0  0  0  0  0  0
    3.7674   -1.6483    0.0103 H   0  0  0  1  0  0  0  0  0  0  0  0
    1.5212   -2.5941    1.6837 H   0  0  0  1  0  0  0  0  0  0  0  0
   -0.5017   -2.5429   -0.4279 H   0  0  0  1  0  0  0  0  0  0  0  0
    0.5528   -4.6410   -0.3427 H   0  0  0  1  0  0  0  0  0  0  0  0
   -1.1155   -4.7695    0.1615 H   0  0  0  1  0  0  0  0  0  0  0  0
   -0.4777   -6.2436    2.2069 H   0  0  0  1  0  0  0  0  0  0  0  0
   -2.5082   -1.9929   -0.0827 H   0  0  0  1  0  0  0  0  0  0  0  0
   -3.3505   -0.6868    2.2055 H   0  0  0  1  0  0  0  0  0  0  0  0
   -3.9004   -2.3399    2.3433 H   0  0  0  1  0  0  0  0  0  0  0  0
   -6.5225   -1.6607    1.4150 H   0  0  0  1  0  0  0  0  0  0  0  0
  1  2  1  0  0  0  0
  1 21  1  0  0  0  0
  1 22  1  0  0  0  0
  2  3  1  0  0  0  0
  2  6  1  0  0  0  0
  2 23  1  0  0  0  0
  3  4  2  0  0  0  0
  3  5  1  0  0  0  0
  5 24  1  0  0  0  0
  6  7  1  0  0  0  0
  6 25  1  0  0  0  0
  6 26  1  0  0  0  0
  7  8  1  0  0  0  0
  7 27  1  0  0  0  0
  7 28  1  0  0  0  0
  8  9  2  0  0  0  0
  8 10  1  0  0  0  0
 10 11  1  0  0  0  0
 10 29  1  0  0  0  0
 11 12  1  0  0  0  0
 11 14  1  0  0  0  0
 11 30  1  0  0  0  0
 12 13  2  0  0  0  0
 12 16  1  0  0  0  0
 14 15  1  0  0  0  0
 14 31  1  0  0  0  0
 14 32  1  0  0  0  0
 15 33  1  0  0  0  0
 16 17  1  0  0  0  0
 16 34  1  0  0  0  0
 17 18  1  0  0  0  0
 17 35  1  0  0  0  0
 17 36  1  0  0  0  0
 18 19  2  0  0  0  0
 18 20  1  0  0  0  0
 20 37  1  0  0  0  0
M  END
> <ConfClashScore>
0 

> <ConfOneFourInteractionScore>
-0.969516 

> <ConfScore>
-0.0982483 

> <ConfScorePBest>
0.0278646 

> <ConfTolerance>
0.883751 

$$$$
GSH
  CCTOOLS-1004241126

 37 36  0  0  0  0  0  0  0  0999 V2000
    5.1816    2.2178    0.1415 N   0  0  0  1  0  0  0  0  0  0  0  0
    4.9497    0.7932    0.3839 C   0  0  0  1  0  0  0  0  0  0  0  0
    5.8793   -0.0876   -0.4184 C   0  0  0  1  0  0  0  0  0  0  0  0
    7.0427    0.2030   -0.6426 O   0  0  0  1  0  0  0  0  0  0  0  0
    5.2970   -1.1827   -0.8379 O   0  0  0  1  0  0  0  0  0  0  0  0
    3.5194    0.4726   -0.0054 C   0  0  0  1  0  0  0  0  0  0  0  0
    3.1638    0.9193   -1.4141 C   0  0  0  1  0  0  0  0  0  0  0  0
    1.6671    0.8749   -1.6942 C   0  0  0  1  0  0  0  0  0  0  0  0
    0.8441    0.7649   -0.7863 O   0  0  0  1  0  0  0  0  0  0  0  0
    1.3592    0.9661   -2.9977 N   0  0  0  1  0  0  0  0  0  0  0  0
   -0.0334    0.9878   -3.4197 C   0  0  0  1  0  0  0  0  0  0  0  0
   -0.7714   -0.1984   -2.8416 C   0  0  0  1  0  0  0  0  0  0  0  0
   -2.0011   -0.2366   -2.8395 O   0  0  0  1  0  0  0  0  0  0  0  0
   -0.1404    0.9964   -4.9301 C   0  0  0  1  0  0  0  0  0  0  0  0
    0.7055   -0.3979   -5.7121 S   0  0  0  1  0  0  0  0  0  0  0  0
   -0.0417   -1.2111   -2.3294 N   0  0  0  1  0  0  0  0  0  0  0  0
   -0.7052   -2.3608   -1.7328 C   0  0  0  1  0  0  0  0  0  0  0  0
   -1.0857   -2.1294   -0.2917 C   0  0  0  1  0  0  0  0  0  0  0  0
   -0.8970   -1.0958    0.3066 O   0  0  0  1  0  0  0  0  0  0  0  0
   -1.6532   -3.1799    0.2614 O   0  0  0  1  0  0  0  0  0  0  0  0
    4.5762    2.7477    0.7012 H   0  0  0  1  0  0  0  0  0  0  0  0
    5.0140    2.4199   -0.8027 H   0  0  0  1  0  0  0  0  0  0  0  0
    5.0788    0.5774    1.4239 H   0  0  0  1  0  0  0  0  0  0  0  0
    5.2711   -1.8252   -0.1251 H   0  0  0  1  0  0  0  0  0  0  0  0
    2.8625    0.9632    0.6821 H   0  0  0  1  0  0  0  0  0  0  0  0
    3.3792   -0.5862    0.0603 H   0  0  0  1  0  0  0  0  0  0  0  0
    3.6599    0.2763   -2.1108 H   0  0  0  1  0  0  0  0  0  0  0  0
    3.5059    1.9241   -1.5493 H   0  0  0  1  0  0  0  0  0  0  0  0
    2.0737    1.0181   -3.6664 H   0  0  0  1  0  0  0  0  0  0  0  0
   -0.4956    1.8792   -3.0501 H   0  0  0  1  0  0  0  0  0  0  0  0
    0.2909    1.9045   -5.2964 H   0  0  0  1  0  0  0  0  0  0  0  0
   -1.1757    0.9593   -5.1978 H   0  0  0  1  0  0  0  0  0  0  0  0
    1.9156   -0.5389   -5.1785 H   0  0  0  1  0  0  0  0  0  0  0  0
    0.9370   -1.1724   -2.3591 H   0  0  0  1  0  0  0  0  0  0  0  0
   -0.0442   -3.2008   -1.7816 H   0  0  0  1  0  0  0  0  0  0  0  0
   -1.5929   -2.5718   -2.2916 H   0  0  0  1  0  0  0  0  0  0  0  0
   -1.7320   -3.0404    1.2079 H   0  0  0  1  0  0  0  0  0  0  0  0
  1  2  1  0  0  0  0
  1 21  1  0  0  0  0
  1 22  1  0  0  0  0
  2  3  1  0  0  0  0
  2  6  1  0  0  0  0
  2 23  1  0  0  0  0
  3  4  2  0  0  0  0
  3  5  1  0  0  0  0
  5 24  1  0  0  0  0
  6  7  1  0  0  0  0
  6 25  1  0  0  0  0
  6 26  1  0  0  0  0
  7  8  1  0  0  0  0
  7 27  1  0  0  0  0
  7 28  1  0  0  0  0
  8  9  2  0  0  0  0
  8 10  1  0  0  0  0
 10 11  1  0  0  0  0
 10 29  1  0  0  0  0
 11 12  1  0  0  0  0
 11 14  1  0  0  0  0
 11 30  1  0  0  0  0
 12 13  2  0  0  0  0
 12 16  1  0  0  0  0
 14 15  1  0  0  0  0
 14 31  1  0  0  0  0
 14 32  1  0  0  0  0
 15 33  1  0  0  0  0
 16 17  1  0  0  0  0
 16 34  1  0  0  0  0
 17 18  1  0  0  0  0
 17 35  1  0  0  0  0
 17 36  1  0  0  0  0
 18 19  2  0  0  0  0
 18 20  1  0  0  0  0
 20 37  1  0  0  0  0
M  END
> <ConfClashScore>
0 

> <ConfOneFourInteractionScore>
-0.956155 

> <ConfScore>
-0.0461244 

> <ConfScorePBest>
0.0274988 

> <ConfTolerance>
0.82251 

$$$$
GSH
  CCTOOLS-1004241126

 37 36  0  0  0  0  0  0  0  0999 V2000
    5.1892    2.2334    0.1470 N   0  0  0  1  0  0  0  0  0  0  0  0
    4.9244    0.7855    0.3744 C   0  0  0  1  0  0  0  0  0  0  0  0
    5.8984   -0.0867   -0.4286 C   0  0  0  1  0  0  0  0  0  0  0  0
    6.3317    0.3975   -1.4906 O   0  0  0  1  0  0  0  0  0  0  0  0
    6.1819   -1.2148    0.0438 O   0  0  0  1  0  0  0  0  0  0  0  0
    3.4913    0.4193    0.0201 C   0  0  0  1  0  0  0  0  0  0  0  0
    3.1363   -0.9550    0.5638 C   0  0  0  1  0  0  0  0  0  0  0  0
    1.8373   -1.4447   -0.0269 C   0  0  0  1  0  0  0  0  0  0  0  0
    0.9940   -0.6641   -0.4365 O   0  0  0  1  0  0  0  0  0  0  0  0
    1.6810   -2.7774   -0.0677 N   0  0  0  1  0  0  0  0  0  0  0  0
    0.4762   -3.4617   -0.5125 C   0  0  0  1  0  0  0  0  0  0  0  0
   -0.7550   -3.0695    0.2989 C   0  0  0  1  0  0  0  0  0  0  0  0
   -1.8633   -3.1381   -0.2066 O   0  0  0  1  0  0  0  0  0  0  0  0
    0.6925   -4.9579   -0.4894 C   0  0  0  1  0  0  0  0  0  0  0  0
    0.9375   -5.6725    1.1538 S   0  0  0  1  0  0  0  0  0  0  0  0
   -0.5529   -2.7422    1.5850 N   0  0  0  1  0  0  0  0  0  0  0  0
   -1.6520   -2.5105    2.5103 C   0  0  0  1  0  0  0  0  0  0  0  0
   -2.2842   -3.7604    3.0699 C   0  0  0  1  0  0  0  0  0  0  0  0
   -3.2558   -3.7416    3.8074 O   0  0  0  1  0  0  0  0  0  0  0  0
   -1.6759   -4.8510    2.6764 O   0  0  0  1  0  0  0  0  0  0  0  0
    4.5786    2.7679    0.6965 H   0  0  0  1  0  0  0  0  0  0  0  0
    5.0481    2.4464   -0.7991 H   0  0  0  1  0  0  0  0  0  0  0  0
    5.0691    0.5753    1.4136 H   0  0  0  1  0  0  0  0  0  0  0  0
    6.9328   -1.1345    0.6365 H   0  0  0  1  0  0  0  0  0  0  0  0
    3.3835    0.4141   -1.0444 H   0  0  0  1  0  0  0  0  0  0  0  0
    2.8289    1.1457    0.4426 H   0  0  0  1  0  0  0  0  0  0  0  0
    3.0379   -0.8967    1.6277 H   0  0  0  1  0  0  0  0  0  0  0  0
    3.9166   -1.6433    0.3145 H   0  0  0  1  0  0  0  0  0  0  0  0
    2.4351   -3.3312    0.2240 H   0  0  0  1  0  0  0  0  0  0  0  0
    0.2898   -3.1832   -1.5287 H   0  0  0  1  0  0  0  0  0  0  0  0
    1.5587   -5.1766   -1.0783 H   0  0  0  1  0  0  0  0  0  0  0  0
   -0.1649   -5.4235   -0.9287 H   0  0  0  1  0  0  0  0  0  0  0  0
    1.6111   -6.8143    1.0456 H   0  0  0  1  0  0  0  0  0  0  0  0
    0.3669   -2.6563    1.9122 H   0  0  0  1  0  0  0  0  0  0  0  0
   -2.4091   -1.9571    1.9951 H   0  0  0  1  0  0  0  0  0  0  0  0
   -1.2806   -1.9306    3.3292 H   0  0  0  1  0  0  0  0  0  0  0  0
   -0.8836   -4.9835    3.2022 H   0  0  0  1  0  0  0  0  0  0  0  0
  1  2  1  0  0  0  0
  1 21  1  0  0  0  0
  1 22  1  0  0  0  0
  2  3  1  0  0  0  0
  2  6  1  0  0  0  0
  2 23  1  0  0  0  0
  3  4  2  0  0  0  0
  3  5  1  0  0  0  0
  5 24  1  0  0  0  0
  6  7  1  0  0  0  0
  6 25  1  0  0  0  0
  6 26  1  0  0  0  0
  7  8  1  0  0  0  0
  7 27  1  0  0  0  0
  7 28  1  0  0  0  0
  8  9  2  0  0  0  0
  8 10  1  0  0  0  0
 10 11  1  0  0  0  0
 10 29  1  0  0  0  0
 11 12  1  0  0  0  0
 11 14  1  0  0  0  0
 11 30  1  0  0  0  0
 12 13  2  0  0  0  0
 12 16  1  0  0  0  0
 14 15  1  0  0  0  0
 14 31  1  0  0  0  0
 14 32  1  0  0  0  0
 15 33  1  0  0  0  0
 16 17  1  0  0  0  0
 16 34  1  0  0  0  0
 17 18  1  0  0  0  0
 17 35  1  0  0  0  0
 17 36  1  0  0  0  0
 18 19  2  0  0  0  0
 18 20  1  0  0  0  0
 20 37  1  0  0  0  0
M  END
> <ConfClashScore>
0 

> <ConfOneFourInteractionScore>
-0.983472 

> <ConfScore>
-0.0383303 

> <ConfScorePBest>
0.027133 

> <ConfTolerance>
0.792994 

$$$$
GSH
  CCTOOLS-1004241126

 37 36  0  0  0  0  0  0  0  0999 V2000
    5.1941    2.2321    0.1576 N   0  0  0  1  0  0  0  0  0  0  0  0
    4.9093    0.7986    0.3728 C   0  0  0  1  0  0  0  0  0  0  0  0
    5.8783   -0.0703   -0.4400 C   0  0  0  1  0  0  0  0  0  0  0  0
    6.3623    0.4066   -1.4832 O   0  0  0  1  0  0  0  0  0  0  0  0
    6.1145   -1.2161    0.0153 O   0  0  0  1  0  0  0  0  0  0  0  0
    3.4914    0.3835    0.0304 C   0  0  0  1  0  0  0  0  0  0  0  0
    2.4343    1.2891    0.6410 C   0  0  0  1  0  0  0  0  0  0  0  0
    1.0320    0.9315    0.2150 C   0  0  0  1  0  0  0  0  0  0  0  0
    0.5430   -0.1514    0.4917 O   0  0  0  1  0  0  0  0  0  0  0  0
    0.3746    1.8748   -0.4779 N   0  0  0  1  0  0  0  0  0  0  0  0
   -0.9508    1.5988   -1.0118 C   0  0  0  1  0  0  0  0  0  0  0  0
   -0.8746    0.4952   -2.0627 C   0  0  0  1  0  0  0  0  0  0  0  0
   -1.8846   -0.0058   -2.5290 O   0  0  0  1  0  0  0  0  0  0  0  0
   -1.5678    2.8486   -1.5978 C   0  0  0  1  0  0  0  0  0  0  0  0
   -0.7306    3.5042   -3.0608 S   0  0  0  1  0  0  0  0  0  0  0  0
    0.3621    0.1233   -2.4293 N   0  0  0  1  0  0  0  0  0  0  0  0
    0.6524   -1.0147   -3.2887 C   0  0  0  1  0  0  0  0  0  0  0  0
    2.1524   -1.2495   -3.4690 C   0  0  0  1  0  0  0  0  0  0  0  0
    2.9381   -0.4085   -3.0024 O   0  0  0  1  0  0  0  0  0  0  0  0
    2.4844   -2.2973   -4.0887 O   0  0  0  1  0  0  0  0  0  0  0  0
    4.5720    2.7724    0.6880 H   0  0  0  1  0  0  0  0  0  0  0  0
    5.0855    2.4474   -0.7923 H   0  0  0  1  0  0  0  0  0  0  0  0
    5.0684    0.5773    1.4075 H   0  0  0  1  0  0  0  0  0  0  0  0
    6.9244   -1.1957    0.5303 H   0  0  0  1  0  0  0  0  0  0  0  0
    3.3334   -0.6121    0.3892 H   0  0  0  1  0  0  0  0  0  0  0  0
    3.3801    0.4016   -1.0336 H   0  0  0  1  0  0  0  0  0  0  0  0
    2.6348    2.2966    0.3415 H   0  0  0  1  0  0  0  0  0  0  0  0
    2.4960    1.2143    1.7066 H   0  0  0  1  0  0  0  0  0  0  0  0
    0.7880    2.7511   -0.6245 H   0  0  0  1  0  0  0  0  0  0  0  0
   -1.5824    1.2587   -0.2179 H   0  0  0  1  0  0  0  0  0  0  0  0
   -1.5594    3.6073   -0.8434 H   0  0  0  1  0  0  0  0  0  0  0  0
   -2.5787    2.6241   -1.8673 H   0  0  0  1  0  0  0  0  0  0  0  0
    0.3931    4.1137   -2.6935 H   0  0  0  1  0  0  0  0  0  0  0  0
    1.1175    0.6518   -2.0970 H   0  0  0  1  0  0  0  0  0  0  0  0
    0.2156   -0.8383   -4.2494 H   0  0  0  1  0  0  0  0  0  0  0  0
    0.2185   -1.8911   -2.8545 H   0  0  0  1  0  0  0  0  0  0  0  0
    3.4416   -2.3494   -4.1404 H   0  0  0  1  0  0  0  0  0  0  0  0
  1  2  1  0  0  0  0
  1 21  1  0  0  0  0
  1 22  1  0  0  0  0
  2  3  1  0  0  0  0
  2  6  1  0  0  0  0
  2 23  1  0  0  0  0
  3  4  2  0  0  0  0
  3  5  1  0  0  0  0
  5 24  1  0  0  0  0
  6  7  1  0  0  0  0
  6 25  1  0  0  0  0
  6 26  1  0  0  0  0
  7  8  1  0  0  0  0
  7 27  1  0  0  0  0
  7 28  1  0  0  0  0
  8  9  2  0  0  0  0
  8 10  1  0  0  0  0
 10 11  1  0  0  0  0
 10 29  1  0  0  0  0
 11 12  1  0  0  0  0
 11 14  1  0  0  0  0
 11 30  1  0  0  0  0
 12 13  2  0  0  0  0
 12 16  1  0  0  0  0
 14 15  1  0  0  0  0
 14 31  1  0  0  0  0
 14 32  1  0  0  0  0
 15 33  1  0  0  0  0
 16 17  1  0  0  0  0
 16 34  1  0  0  0  0
 17 18  1  0  0  0  0
 17 35  1  0  0  0  0
 17 36  1  0  0  0  0
 18 19  2  0  0  0  0
 18 20  1  0  0  0  0
 20 37  1  0  0  0  0
M  END
> <ConfClashScore>
0 

> <ConfOneFourInteractionScore>
-0.960406 

> <ConfScore>
-0.0372287 

> <ConfScorePBest>
0.0267672 

> <ConfTolerance>
1.15264 

$$$$
GSH
  CCTOOLS-1004241126

 37 36  0  0  0  0  0  0  0  0999 V2000
    5.1667    2.2291    0.1998 N   0  0  0  1  0  0  0  0  0  0  0  0
    4.9174    0.7798    0.3864 C   0  0  0  1  0  0  0  0  0  0  0  0
    5.8766   -0.0189   -0.4656 C   0  0  0  1  0  0  0  0  0  0  0  0
    6.4488    0.4440   -1.4249 O   0  0  0  1  0  0  0  0  0  0  0  0
    6.0130   -1.2587   -0.0462 O   0  0  0  1  0  0  0  0  0  0  0  0
    3.4702    0.4526    0.0727 C   0  0  0  1  0  0  0  0  0  0  0  0
    3.0672    0.6004   -1.3855 C   0  0  0  1  0  0  0  0  0  0  0  0
    1.7198    0.0425   -1.8006 C   0  0  0  1  0  0  0  0  0  0  0  0
    0.6703    0.5383   -1.3926 O   0  0  0  1  0  0  0  0  0  0  0  0
    1.7558   -1.0121   -2.6305 N   0  0  0  1  0  0  0  0  0  0  0  0
    0.5856   -1.7021   -3.1522 C   0  0  0  1  0  0  0  0  0  0  0  0
   -0.3132   -2.0908   -1.9880 C   0  0  0  1  0  0  0  0  0  0  0  0
   -1.5161   -2.2308   -2.1362 O   0  0  0  1  0  0  0  0  0  0  0  0
    0.9850   -2.8769   -4.0200 C   0  0  0  1  0  0  0  0  0  0  0  0
    2.3903   -2.5191   -5.1007 S   0  0  0  1  0  0  0  0  0  0  0  0
    0.3002   -2.2642   -0.8139 N   0  0  0  1  0  0  0  0  0  0  0  0
   -0.3868   -2.5894    0.4271 C   0  0  0  1  0  0  0  0  0  0  0  0
   -0.6467   -4.0595    0.6418 C   0  0  0  1  0  0  0  0  0  0  0  0
   -0.6590   -4.8673   -0.2615 O   0  0  0  1  0  0  0  0  0  0  0  0
   -0.8542   -4.3549    1.9004 O   0  0  0  1  0  0  0  0  0  0  0  0
    4.4204    2.7406    0.5765 H   0  0  0  1  0  0  0  0  0  0  0  0
    5.2474    2.4260   -0.7568 H   0  0  0  1  0  0  0  0  0  0  0  0
    5.1002    0.5319    1.4111 H   0  0  0  1  0  0  0  0  0  0  0  0
    5.2634   -1.7810   -0.3409 H   0  0  0  1  0  0  0  0  0  0  0  0
    2.8516    1.1046    0.6533 H   0  0  0  1  0  0  0  0  0  0  0  0
    3.2912   -0.5617    0.3628 H   0  0  0  1  0  0  0  0  0  0  0  0
    3.8126    0.1089   -1.9751 H   0  0  0  1  0  0  0  0  0  0  0  0
    3.0644    1.6461   -1.6124 H   0  0  0  1  0  0  0  0  0  0  0  0
    2.6366   -1.3422   -2.9056 H   0  0  0  1  0  0  0  0  0  0  0  0
    0.0384   -1.0197   -3.7685 H   0  0  0  1  0  0  0  0  0  0  0  0
    0.1485   -3.1495   -4.6291 H   0  0  0  1  0  0  0  0  0  0  0  0
    1.2456   -3.6966   -3.3835 H   0  0  0  1  0  0  0  0  0  0  0  0
    3.3454   -3.4229   -4.9010 H   0  0  0  1  0  0  0  0  0  0  0  0
    1.2749   -2.1662   -0.7866 H   0  0  0  1  0  0  0  0  0  0  0  0
   -1.3287   -2.0816    0.4285 H   0  0  0  1  0  0  0  0  0  0  0  0
    0.2111   -2.2352    1.2407 H   0  0  0  1  0  0  0  0  0  0  0  0
   -0.0471   -4.7048    2.2847 H   0  0  0  1  0  0  0  0  0  0  0  0
  1  2  1  0  0  0  0
  1 21  1  0  0  0  0
  1 22  1  0  0  0  0
  2  3  1  0  0  0  0
  2  6  1  0  0  0  0
  2 23  1  0  0  0  0
  3  4  2  0  0  0  0
  3  5  1  0  0  0  0
  5 24  1  0  0  0  0
  6  7  1  0  0  0  0
  6 25  1  0  0  0  0
  6 26  1  0  0  0  0
  7  8  1  0  0  0  0
  7 27  1  0  0  0  0
  7 28  1  0  0  0  0
  8  9  2  0  0  0  0
  8 10  1  0  0  0  0
 10 11  1  0  0  0  0
 10 29  1  0  0  0  0
 11 12  1  0  0  0  0
 11 14  1  0  0  0  0
 11 30  1  0  0  0  0
 12 13  2  0  0  0  0
 12 16  1  0  0  0  0
 14 15  1  0  0  0  0
 14 31  1  0  0  0  0
 14 32  1  0  0  0  0
 15 33  1  0  0  0  0
 16 17  1  0  0  0  0
 16 34  1  0  0  0  0
 17 18  1  0  0  0  0
 17 35  1  0  0  0  0
 17 36  1  0  0  0  0
 18 19  2  0  0  0  0
 18 20  1  0  0  0  0
 20 37  1  0  0  0  0
M  END
> <ConfClashScore>
0 

> <ConfOneFourInteractionScore>
-0.962208 

> <ConfScore>
-0.0323877 

> <ConfScorePBest>
0.0264014 

> <ConfTolerance>
0.954959 

$$$$
GSH
  CCTOOLS-1004241126

 37 36  0  0  0  0  0  0  0  0999 V2000
    5.0341    2.2585    0.3111 N   0  0  0  1  0  0  0  0  0  0  0  0
    4.8743    0.7825    0.4301 C   0  0  0  1  0  0  0  0  0  0  0  0
    5.8488    0.1057   -0.5312 C   0  0  0  1  0  0  0  0  0  0  0  0
    6.1210    0.7259   -1.5722 O   0  0  0  1  0  0  0  0  0  0  0  0
    6.2991   -1.0242   -0.1956 O   0  0  0  1  0  0  0  0  0  0  0  0
    3.4526    0.3986    0.1028 C   0  0  0  1  0  0  0  0  0  0  0  0
    2.3845    1.0412    0.9726 C   0  0  0  1  0  0  0  0  0  0  0  0
    0.9913    0.5995    0.6178 C   0  0  0  1  0  0  0  0  0  0  0  0
    0.7261    0.0751   -0.4474 O   0  0  0  1  0  0  0  0  0  0  0  0
    0.0060    0.7874    1.5003 N   0  0  0  1  0  0  0  0  0  0  0  0
   -1.3120    0.1938    1.3320 C   0  0  0  1  0  0  0  0  0  0  0  0
   -2.2545    1.2499    0.7554 C   0  0  0  1  0  0  0  0  0  0  0  0
   -3.4452    0.9607    0.6451 O   0  0  0  1  0  0  0  0  0  0  0  0
   -1.8025   -0.3007    2.6729 C   0  0  0  1  0  0  0  0  0  0  0  0
   -2.0620    1.0747    3.8183 S   0  0  0  1  0  0  0  0  0  0  0  0
   -1.7384    2.4304    0.4017 N   0  0  0  1  0  0  0  0  0  0  0  0
   -2.6014    3.4710   -0.1640 C   0  0  0  1  0  0  0  0  0  0  0  0
   -2.6732    3.3368   -1.6652 C   0  0  0  1  0  0  0  0  0  0  0  0
   -2.8275    4.2632   -2.4267 O   0  0  0  1  0  0  0  0  0  0  0  0
   -2.5494    2.0918   -2.0729 O   0  0  0  1  0  0  0  0  0  0  0  0
    4.1795    2.6600    0.0487 H   0  0  0  1  0  0  0  0  0  0  0  0
    5.7115    2.4598   -0.3679 H   0  0  0  1  0  0  0  0  0  0  0  0
    5.0982    0.4758    1.4304 H   0  0  0  1  0  0  0  0  0  0  0  0
    6.0192   -1.2276    0.6999 H   0  0  0  1  0  0  0  0  0  0  0  0
    3.3661   -0.6630    0.2049 H   0  0  0  1  0  0  0  0  0  0  0  0
    3.2617    0.6764   -0.9128 H   0  0  0  1  0  0  0  0  0  0  0  0
    2.4448    2.1033    0.8572 H   0  0  0  1  0  0  0  0  0  0  0  0
    2.5746    0.7815    1.9930 H   0  0  0  1  0  0  0  0  0  0  0  0
    0.1767    1.3444    2.2883 H   0  0  0  1  0  0  0  0  0  0  0  0
   -1.2579   -0.6327    0.6546 H   0  0  0  1  0  0  0  0  0  0  0  0
   -1.0753   -0.9676    3.0867 H   0  0  0  1  0  0  0  0  0  0  0  0
   -2.7275   -0.8210    2.5364 H   0  0  0  1  0  0  0  0  0  0  0  0
   -3.3638    1.3270    3.9214 H   0  0  0  1  0  0  0  0  0  0  0  0
   -0.7807    2.6007    0.5207 H   0  0  0  1  0  0  0  0  0  0  0  0
   -2.2036    4.4325    0.0852 H   0  0  0  1  0  0  0  0  0  0  0  0
   -3.5850    3.3742    0.2458 H   0  0  0  1  0  0  0  0  0  0  0  0
   -2.9872    1.5059   -1.4511 H   0  0  0  1  0  0  0  0  0  0  0  0
  1  2  1  0  0  0  0
  1 21  1  0  0  0  0
  1 22  1  0  0  0  0
  2  3  1  0  0  0  0
  2  6  1  0  0  0  0
  2 23  1  0  0  0  0
  3  4  2  0  0  0  0
  3  5  1  0  0  0  0
  5 24  1  0  0  0  0
  6  7  1  0  0  0  0
  6 25  1  0  0  0  0
  6 26  1  0  0  0  0
  7  8  1  0  0  0  0
  7 27  1  0  0  0  0
  7 28  1  0  0  0  0
  8  9  2  0  0  0  0
  8 10  1  0  0  0  0
 10 11  1  0  0  0  0
 10 29  1  0  0  0  0
 11 12  1  0  0  0  0
 11 14  1  0  0  0  0
 11 30  1  0  0  0  0
 12 13  2  0  0  0  0
 12 16  1  0  0  0  0
 14 15  1  0  0  0  0
 14 31  1  0  0  0  0
 14 32  1  0  0  0  0
 15 33  1  0  0  0  0
 16 17  1  0  0  0  0
 16 34  1  0  0  0  0
 17 18  1  0  0  0  0
 17 35  1  0  0  0  0
 17 36  1  0  0  0  0
 18 19  2  0  0  0  0
 18 20  1  0  0  0  0
 20 37  1  0  0  0  0
M  END
> <ConfClashScore>
0 

> <ConfOneFourInteractionScore>
-0.984354 

> <ConfScore>
-0.0183987 

> <ConfScorePBest>
0.0260356 

> <ConfTolerance>
0.882793 

$$$$
GSH
  CCTOOLS-1004241126

 37 36  0  0  0  0  0  0  0  0999 V2000
    4.8951    2.2668    0.3118 N   0  0  0  1  0  0  0  0  0  0  0  0
    4.8069    0.7816    0.3826 C   0  0  0  1  0  0  0  0  0  0  0  0
    5.9348    0.1926   -0.4451 C   0  0  0  1  0  0  0  0  0  0  0  0
    6.5711    0.8382   -1.2494 O   0  0  0  1  0  0  0  0  0  0  0  0
    6.1356   -1.0760   -0.1910 O   0  0  0  1  0  0  0  0  0  0  0  0
    3.4277    0.2663    0.0538 C   0  0  0  1  0  0  0  0  0  0  0  0
    3.0295    0.3510   -1.4106 C   0  0  0  1  0  0  0  0  0  0  0  0
    1.7200   -0.3518   -1.7117 C   0  0  0  1  0  0  0  0  0  0  0  0
    0.6888    0.2772   -1.8834 O   0  0  0  1  0  0  0  0  0  0  0  0
    1.7780   -1.6915   -1.7741 N   0  0  0  1  0  0  0  0  0  0  0  0
    0.5963   -2.5113   -1.9962 C   0  0  0  1  0  0  0  0  0  0  0  0
   -0.5541   -2.0302   -1.1170 C   0  0  0  1  0  0  0  0  0  0  0  0
   -1.7152   -2.1489   -1.4725 O   0  0  0  1  0  0  0  0  0  0  0  0
    0.8298   -3.9804   -1.7138 C   0  0  0  1  0  0  0  0  0  0  0  0
    1.0968   -4.3353    0.0394 S   0  0  0  1  0  0  0  0  0  0  0  0
   -0.2012   -1.4771    0.0542 N   0  0  0  1  0  0  0  0  0  0  0  0
   -1.1834   -0.9887    1.0106 C   0  0  0  1  0  0  0  0  0  0  0  0
   -1.9716    0.1855    0.4861 C   0  0  0  1  0  0  0  0  0  0  0  0
   -3.1369    0.3745    0.7598 O   0  0  0  1  0  0  0  0  0  0  0  0
   -1.2584    0.9644   -0.2879 O   0  0  0  1  0  0  0  0  0  0  0  0
    4.3127    2.5953   -0.4047 H   0  0  0  1  0  0  0  0  0  0  0  0
    5.8206    2.5304    0.1269 H   0  0  0  1  0  0  0  0  0  0  0  0
    5.0011    0.5081    1.3987 H   0  0  0  1  0  0  0  0  0  0  0  0
    5.7907   -1.2869    0.6797 H   0  0  0  1  0  0  0  0  0  0  0  0
    2.7200    0.8338    0.6212 H   0  0  0  1  0  0  0  0  0  0  0  0
    3.3806   -0.7611    0.3493 H   0  0  0  1  0  0  0  0  0  0  0  0
    3.8009   -0.0992   -1.9999 H   0  0  0  1  0  0  0  0  0  0  0  0
    2.9318    1.3824   -1.6779 H   0  0  0  1  0  0  0  0  0  0  0  0
    2.6464   -2.1328   -1.6663 H   0  0  0  1  0  0  0  0  0  0  0  0
    0.2945   -2.4161   -3.0183 H   0  0  0  1  0  0  0  0  0  0  0  0
    1.6930   -4.2986   -2.2604 H   0  0  0  1  0  0  0  0  0  0  0  0
   -0.0258   -4.5306   -2.0456 H   0  0  0  1  0  0  0  0  0  0  0  0
    0.0845   -5.0618    0.5045 H   0  0  0  1  0  0  0  0  0  0  0  0
    0.7509   -1.3997    0.2728 H   0  0  0  1  0  0  0  0  0  0  0  0
   -0.6733   -0.6879    1.9018 H   0  0  0  1  0  0  0  0  0  0  0  0
   -1.8632   -1.7828    1.2389 H   0  0  0  1  0  0  0  0  0  0  0  0
   -0.3299    0.7348   -0.2055 H   0  0  0  1  0  0  0  0  0  0  0  0
  1  2  1  0  0  0  0
  1 21  1  0  0  0  0
  1 22  1  0  0  0  0
  2  3  1  0  0  0  0
  2  6  1  0  0  0  0
  2 23  1  0  0  0  0
  3  4  2  0  0  0  0
  3  5  1  0  0  0  0
  5 24  1  0  0  0  0
  6  7  1  0  0  0  0
  6 25  1  0  0  0  0
  6 26  1  0  0  0  0
  7  8  1  0  0  0  0
  7 27  1  0  0  0  0
  7 28  1  0  0  0  0
  8  9  2  0  0  0  0
  8 10  1  0  0  0  0
 10 11  1  0  0  0  0
 10 29  1  0  0  0  0
 11 12  1  0  0  0  0
 11 14  1  0  0  0  0
 11 30  1  0  0  0  0
 12 13  2  0  0  0  0
 12 16  1  0  0  0  0
 14 15  1  0  0  0  0
 14 31  1  0  0  0  0
 14 32  1  0  0  0  0
 15 33  1  0  0  0  0
 16 17  1  0  0  0  0
 16 34  1  0  0  0  0
 17 18  1  0  0  0  0
 17 35  1  0  0  0  0
 17 36  1  0  0  0  0
 18 19  2  0  0  0  0
 18 20  1  0  0  0  0
 20 37  1  0  0  0  0
M  END
> <ConfClashScore>
0 

> <ConfOneFourInteractionScore>
-0.97542 

> <ConfScore>
0.00350783 

> <ConfScorePBest>
0.0256698 

> <ConfTolerance>
0.948627 

$$$$
GSH
  CCTOOLS-1004241126

 37 36  0  0  0  0  0  0  0  0999 V2000
    5.1331    2.1881   -0.1079 N   0  0  0  1  0  0  0  0  0  0  0  0
    4.8730    0.7756    0.2589 C   0  0  0  1  0  0  0  0  0  0  0  0
    6.0891   -0.0746   -0.0854 C   0  0  0  1  0  0  0  0  0  0  0  0
    5.9492   -1.1246   -0.7247 O   0  0  0  1  0  0  0  0  0  0  0  0
    7.2205    0.3546    0.3160 O   0  0  0  1  0  0  0  0  0  0  0  0
    3.5408    0.2121   -0.1969 C   0  0  0  1  0  0  0  0  0  0  0  0
    2.3889    1.1924   -0.0471 C   0  0  0  1  0  0  0  0  0  0  0  0
    1.0400    0.6877   -0.5213 C   0  0  0  1  0  0  0  0  0  0  0  0
    0.9395   -0.3540   -1.1681 O   0  0  0  1  0  0  0  0  0  0  0  0
   -0.0163    1.4469   -0.1896 N   0  0  0  1  0  0  0  0  0  0  0  0
   -1.3816    1.0663   -0.5197 C   0  0  0  1  0  0  0  0  0  0  0  0
   -1.6394    0.9841   -2.0073 C   0  0  0  1  0  0  0  0  0  0  0  0
   -2.4340    0.1642   -2.4656 O   0  0  0  1  0  0  0  0  0  0  0  0
   -2.3442    2.0549    0.0983 C   0  0  0  1  0  0  0  0  0  0  0  0
   -2.2245    3.7433   -0.5388 S   0  0  0  1  0  0  0  0  0  0  0  0
   -0.9795    1.8270   -2.8066 N   0  0  0  1  0  0  0  0  0  0  0  0
   -1.2408    1.9070   -4.2464 C   0  0  0  1  0  0  0  0  0  0  0  0
   -2.4848    2.7178   -4.5114 C   0  0  0  1  0  0  0  0  0  0  0  0
   -3.1542    3.1510   -3.5654 O   0  0  0  1  0  0  0  0  0  0  0  0
   -2.7882    2.9189   -5.7332 O   0  0  0  1  0  0  0  0  0  0  0  0
    5.4280    2.6830    0.6849 H   0  0  0  1  0  0  0  0  0  0  0  0
    4.3111    2.5914   -0.4574 H   0  0  0  1  0  0  0  0  0  0  0  0
    4.8238    0.7654    1.3278 H   0  0  0  1  0  0  0  0  0  0  0  0
    7.0988    0.8921    1.1021 H   0  0  0  1  0  0  0  0  0  0  0  0
    3.3233   -0.6585    0.3859 H   0  0  0  1  0  0  0  0  0  0  0  0
    3.6227   -0.0600   -1.2285 H   0  0  0  1  0  0  0  0  0  0  0  0
    2.6283    2.0714   -0.6083 H   0  0  0  1  0  0  0  0  0  0  0  0
    2.3017    1.4433    0.9894 H   0  0  0  1  0  0  0  0  0  0  0  0
    0.1374    2.2867    0.2916 H   0  0  0  1  0  0  0  0  0  0  0  0
   -1.5833    0.1044   -0.0966 H   0  0  0  1  0  0  0  0  0  0  0  0
   -2.1582    2.0843    1.1516 H   0  0  0  1  0  0  0  0  0  0  0  0
   -3.3392    1.7036   -0.0790 H   0  0  0  1  0  0  0  0  0  0  0  0
   -3.3646    4.0733   -1.1390 H   0  0  0  1  0  0  0  0  0  0  0  0
   -0.2970    2.4122   -2.4166 H   0  0  0  1  0  0  0  0  0  0  0  0
   -1.3745    0.9193   -4.6356 H   0  0  0  1  0  0  0  0  0  0  0  0
   -0.4074    2.3718   -4.7304 H   0  0  0  1  0  0  0  0  0  0  0  0
   -2.3959    2.2326   -6.2779 H   0  0  0  1  0  0  0  0  0  0  0  0
  1  2  1  0  0  0  0
  1 21  1  0  0  0  0
  1 22  1  0  0  0  0
  2  3  1  0  0  0  0
  2  6  1  0  0  0  0
  2 23  1  0  0  0  0
  3  4  2  0  0  0  0
  3  5  1  0  0  0  0
  5 24  1  0  0  0  0
  6  7  1  0  0  0  0
  6 25  1  0  0  0  0
  6 26  1  0  0  0  0
  7  8  1  0  0  0  0
  7 27  1  0  0  0  0
  7 28  1  0  0  0  0
  8  9  2  0  0  0  0
  8 10  1  0  0  0  0
 10 11  1  0  0  0  0
 10 29  1  0  0  0  0
 11 12  1  0  0  0  0
 11 14  1  0  0  0  0
 11 30  1  0  0  0  0
 12 13  2  0  0  0  0
 12 16  1  0  0  0  0
 14 15  1  0  0  0  0
 14 31  1  0  0  0  0
 14 32  1  0  0  0  0
 15 33  1  0  0  0  0
 16 17  1  0  0  0  0
 16 34  1  0  0  0  0
 17 18  1  0  0  0  0
 17 35  1  0  0  0  0
 17 36  1  0  0  0  0
 18 19  2  0  0  0  0
 18 20  1  0  0  0  0
 20 37  1  0  0  0  0
M  END
> <ConfClashScore>
0 

> <ConfOneFourInteractionScore>
-0.98124 

> <ConfScore>
0.0140272 

> <ConfScorePBest>
0.025304 

> <ConfTolerance>
0.965171 

$$$$
GSH
  CCTOOLS-1004241126

 37 36  0  0  0  0  0  0  0  0999 V2000
    4.7547    2.2616    0.2012 N   0  0  0  1  0  0  0  0  0  0  0  0
    4.7869    0.7913    0.3882 C   0  0  0  1  0  0  0  0  0  0  0  0
    6.0257    0.2123   -0.2829 C   0  0  0  1  0  0  0  0  0  0  0  0
    5.8665   -0.5825   -1.2175 O   0  0  0  1  0  0  0  0  0  0  0  0
    7.1389    0.5936    0.1728 O   0  0  0  1  0  0  0  0  0  0  0  0
    3.5095    0.1680   -0.1409 C   0  0  0  1  0  0  0  0  0  0  0  0
    2.2497    0.8082    0.4190 C   0  0  0  1  0  0  0  0  0  0  0  0
    0.9770    0.2096   -0.1476 C   0  0  0  1  0  0  0  0  0  0  0  0
    0.9248   -0.9702   -0.4925 O   0  0  0  1  0  0  0  0  0  0  0  0
   -0.0686    1.0461   -0.2434 N   0  0  0  1  0  0  0  0  0  0  0  0
   -1.3826    0.6008   -0.6827 C   0  0  0  1  0  0  0  0  0  0  0  0
   -2.0500    1.5567   -1.6455 C   0  0  0  1  0  0  0  0  0  0  0  0
   -2.8611    1.1511   -2.4768 O   0  0  0  1  0  0  0  0  0  0  0  0
   -2.2761    0.4018    0.5207 C   0  0  0  1  0  0  0  0  0  0  0  0
   -1.6195   -0.7083    1.7886 S   0  0  0  1  0  0  0  0  0  0  0  0
   -1.7326    2.8520   -1.5658 N   0  0  0  1  0  0  0  0  0  0  0  0
   -2.2325    3.8348   -2.5157 C   0  0  0  1  0  0  0  0  0  0  0  0
   -1.6270    5.2099   -2.3834 C   0  0  0  1  0  0  0  0  0  0  0  0
   -0.9209    5.5330   -1.4567 O   0  0  0  1  0  0  0  0  0  0  0  0
   -1.9533    6.0038   -3.3808 O   0  0  0  1  0  0  0  0  0  0  0  0
    4.7038    2.4686   -0.7553 H   0  0  0  1  0  0  0  0  0  0  0  0
    5.5688    2.6564    0.5778 H   0  0  0  1  0  0  0  0  0  0  0  0
    4.8497    0.5828    1.4358 H   0  0  0  1  0  0  0  0  0  0  0  0
    7.2375    1.5377    0.0294 H   0  0  0  1  0  0  0  0  0  0  0  0
    3.5062   -0.8703    0.1179 H   0  0  0  1  0  0  0  0  0  0  0  0
    3.4977    0.2707   -1.2059 H   0  0  0  1  0  0  0  0  0  0  0  0
    2.2670    1.8528    0.1880 H   0  0  0  1  0  0  0  0  0  0  0  0
    2.2443    0.6773    1.4810 H   0  0  0  1  0  0  0  0  0  0  0  0
    0.0574    1.9893   -0.0093 H   0  0  0  1  0  0  0  0  0  0  0  0
   -1.2800   -0.3440   -1.1743 H   0  0  0  1  0  0  0  0  0  0  0  0
   -3.2074    0.0008    0.1792 H   0  0  0  1  0  0  0  0  0  0  0  0
   -2.4427    1.3579    0.9714 H   0  0  0  1  0  0  0  0  0  0  0  0
   -1.4461   -1.9208    1.2705 H   0  0  0  1  0  0  0  0  0  0  0  0
   -1.1426    3.1508   -0.8426 H   0  0  0  1  0  0  0  0  0  0  0  0
   -3.2900    3.9225   -2.3776 H   0  0  0  1  0  0  0  0  0  0  0  0
   -2.0298    3.4758   -3.5030 H   0  0  0  1  0  0  0  0  0  0  0  0
   -1.5357    5.6932   -4.1875 H   0  0  0  1  0  0  0  0  0  0  0  0
  1  2  1  0  0  0  0
  1 21  1  0  0  0  0
  1 22  1  0  0  0  0
  2  3  1  0  0  0  0
  2  6  1  0  0  0  0
  2 23  1  0  0  0  0
  3  4  2  0  0  0  0
  3  5  1  0  0  0  0
  5 24  1  0  0  0  0
  6  7  1  0  0  0  0
  6 25  1  0  0  0  0
  6 26  1  0  0  0  0
  7  8  1  0  0  0  0
  7 27  1  0  0  0  0
  7 28  1  0  0  0  0
  8  9  2  0  0  0  0
  8 10  1  0  0  0  0
 10 11  1  0  0  0  0
 10 29  1  0  0  0  0
 11 12  1  0  0  0  0
 11 14  1  0  0  0  0
 11 30  1  0  0  0  0
 12 13  2  0  0  0  0
 12 16  1  0  0  0  0
 14 15  1  0  0  0  0
 14 31  1  0  0  0  0
 14 32  1  0  0  0  0
 15 33  1  0  0  0  0
 16 17  1  0  0  0  0
 16 34  1  0  0  0  0
 17 18  1  0  0  0  0
 17 35  1  0  0  0  0
 17 36  1  0  0  0  0
 18 19  2  0  0  0  0
 18 20  1  0  0  0  0
 20 37  1  0  0  0  0
M  END
> <ConfClashScore>
0 

> <ConfOneFourInteractionScore>
-0.951916 

> <ConfScore>
0.015189 

> <ConfScorePBest>
0.0249382 

> <ConfTolerance>
0.873384 

$$$$
GSH
  CCTOOLS-1004241126

 37 36  0  0  0  0  0  0  0  0999 V2000
    5.1770    2.2214    0.1542 N   0  0  0  1  0  0  0  0  0  0  0  0
    4.9472    0.7951    0.3884 C   0  0  0  1  0  0  0  0  0  0  0  0
    5.8832   -0.0904   -0.4352 C   0  0  0  1  0  0  0  0  0  0  0  0
    5.3312   -0.7895   -1.3006 O   0  0  0  1  0  0  0  0  0  0  0  0
    7.0958   -0.0193   -0.1547 O   0  0  0  1  0  0  0  0  0  0  0  0
    3.5147    0.4764    0.0059 C   0  0  0  1  0  0  0  0  0  0  0  0
    2.4913    1.3264    0.7411 C   0  0  0  1  0  0  0  0  0  0  0  0
    1.0460    0.9562    0.3973 C   0  0  0  1  0  0  0  0  0  0  0  0
    0.8574   -0.0624   -0.2665 O   0  0  0  1  0  0  0  0  0  0  0  0
    0.1020    1.7781    0.8513 N   0  0  0  1  0  0  0  0  0  0  0  0
   -1.3364    1.4652    0.7398 C   0  0  0  1  0  0  0  0  0  0  0  0
   -2.0789    2.6283    0.1004 C   0  0  0  1  0  0  0  0  0  0  0  0
   -1.6214    3.7697    0.1379 O   0  0  0  1  0  0  0  0  0  0  0  0
   -1.8725    1.0340    2.0862 C   0  0  0  1  0  0  0  0  0  0  0  0
   -1.0062   -0.3598    2.8464 S   0  0  0  1  0  0  0  0  0  0  0  0
   -3.2729    2.3229   -0.4155 N   0  0  0  1  0  0  0  0  0  0  0  0
   -4.2193    3.3049   -0.9234 C   0  0  0  1  0  0  0  0  0  0  0  0
   -4.8833    4.1516    0.1337 C   0  0  0  1  0  0  0  0  0  0  0  0
   -5.2581    5.2990   -0.1379 O   0  0  0  1  0  0  0  0  0  0  0  0
   -5.0268    3.6228    1.2848 O   0  0  0  1  0  0  0  0  0  0  0  0
    4.5400    2.7465    0.6822 H   0  0  0  1  0  0  0  0  0  0  0  0
    5.0538    2.4199   -0.7976 H   0  0  0  1  0  0  0  0  0  0  0  0
    5.0832    0.5721    1.4261 H   0  0  0  1  0  0  0  0  0  0  0  0
    7.5802    0.3209   -0.9105 H   0  0  0  1  0  0  0  0  0  0  0  0
    3.3247   -0.5526    0.2297 H   0  0  0  1  0  0  0  0  0  0  0  0
    3.3997    0.6404   -1.0452 H   0  0  0  1  0  0  0  0  0  0  0  0
    2.6510    2.3521    0.4818 H   0  0  0  1  0  0  0  0  0  0  0  0
    2.6346    1.1976    1.7936 H   0  0  0  1  0  0  0  0  0  0  0  0
    0.3714    2.6201    1.2742 H   0  0  0  1  0  0  0  0  0  0  0  0
   -1.4358    0.6282    0.0806 H   0  0  0  1  0  0  0  0  0  0  0  0
   -2.8987    0.7580    1.9613 H   0  0  0  1  0  0  0  0  0  0  0  0
   -1.8056    1.8688    2.7522 H   0  0  0  1  0  0  0  0  0  0  0  0
   -0.6348   -0.0319    4.0806 H   0  0  0  1  0  0  0  0  0  0  0  0
   -3.5277    1.3774   -0.4543 H   0  0  0  1  0  0  0  0  0  0  0  0
   -4.9839    2.7831   -1.4601 H   0  0  0  1  0  0  0  0  0  0  0  0
   -3.6957    3.9568   -1.5910 H   0  0  0  1  0  0  0  0  0  0  0  0
   -5.2475    2.6938    1.1854 H   0  0  0  1  0  0  0  0  0  0  0  0
  1  2  1  0  0  0  0
  1 21  1  0  0  0  0
  1 22  1  0  0  0  0
  2  3  1  0  0  0  0
  2  6  1  0  0  0  0
  2 23  1  0  0  0  0
  3  4  2  0  0  0  0
  3  5  1  0  0  0  0
  5 24  1  0  0  0  0
  6  7  1  0  0  0  0
  6 25  1  0  0  0  0
  6 26  1  0  0  0  0
  7  8  1  0  0  0  0
  7 27  1  0  0  0  0
  7 28  1  0  0  0  0
  8  9  2  0  0  0  0
  8 10  1  0  0  0  0
 10 11  1  0  0  0  0
 10 29  1  0  0  0  0
 11 12  1  0  0  0  0
 11 14  1  0  0  0  0
 11 30  1  0  0  0  0
 12 13  2  0  0  0  0
 12 16  1  0  0  0  0
 14 15  1  0  0  0  0
 14 31  1  0  0  0  0
 14 32  1  0  0  0  0
 15 33  1  0  0  0  0
 16 17  1  0  0  0  0
 16 34  1  0  0  0  0
 17 18  1  0  0  0  0
 17 35  1  0  0  0  0
 17 36  1  0  0  0  0
 18 19  2  0  0  0  0
 18 20  1  0  0  0  0
 20 37  1  0  0  0  0
M  END
> <ConfClashScore>
0 

> <ConfOneFourInteractionScore>
-0.969018 

> <ConfScore>
0.0245827 

> <ConfScorePBest>
0.0245725 

> <ConfTolerance>
0.746272 

$$$$
GSH
  CCTOOLS-1004241126

 37 36  0  0  0  0  0  0  0  0999 V2000
    5.1980    2.2043    0.0747 N   0  0  0  1  0  0  0  0  0  0  0  0
    4.9128    0.7753    0.3471 C   0  0  0  1  0  0  0  0  0  0  0  0
    5.9664   -0.0763   -0.3495 C   0  0  0  1  0  0  0  0  0  0  0  0
    6.2288   -1.1873    0.1274 O   0  0  0  1  0  0  0  0  0  0  0  0
    6.5006    0.4243   -1.3773 O   0  0  0  1  0  0  0  0  0  0  0  0
    3.4886    0.4126   -0.0272 C   0  0  0  1  0  0  0  0  0  0  0  0
    2.4953    1.2778    0.7312 C   0  0  0  1  0  0  0  0  0  0  0  0
    1.0248    0.9616    0.4765 C   0  0  0  1  0  0  0  0  0  0  0  0
    0.6091    0.7482   -0.6616 O   0  0  0  1  0  0  0  0  0  0  0  0
    0.2443    0.8439    1.5623 N   0  0  0  1  0  0  0  0  0  0  0  0
   -1.1896    0.6139    1.4677 C   0  0  0  1  0  0  0  0  0  0  0  0
   -1.9358    1.9239    1.5829 C   0  0  0  1  0  0  0  0  0  0  0  0
   -1.7091    2.6997    2.5104 O   0  0  0  1  0  0  0  0  0  0  0  0
   -1.6521   -0.3562    2.5312 C   0  0  0  1  0  0  0  0  0  0  0  0
   -1.6266    0.2882    4.2209 S   0  0  0  1  0  0  0  0  0  0  0  0
   -2.8465    2.2122    0.6488 N   0  0  0  1  0  0  0  0  0  0  0  0
   -3.7151    3.3761    0.7430 C   0  0  0  1  0  0  0  0  0  0  0  0
   -3.0884    4.6180    0.1600 C   0  0  0  1  0  0  0  0  0  0  0  0
   -1.9789    4.6626   -0.3185 O   0  0  0  1  0  0  0  0  0  0  0  0
   -3.8800    5.6673    0.2236 O   0  0  0  1  0  0  0  0  0  0  0  0
    4.7935    2.7579    0.7749 H   0  0  0  1  0  0  0  0  0  0  0  0
    4.8216    2.4522   -0.7956 H   0  0  0  1  0  0  0  0  0  0  0  0
    5.0181    0.6150    1.3997 H   0  0  0  1  0  0  0  0  0  0  0  0
    7.2680    0.9407   -1.1203 H   0  0  0  1  0  0  0  0  0  0  0  0
    3.3136   -0.6153    0.2130 H   0  0  0  1  0  0  0  0  0  0  0  0
    3.3531    0.5619   -1.0781 H   0  0  0  1  0  0  0  0  0  0  0  0
    2.6665    2.2971    0.4542 H   0  0  0  1  0  0  0  0  0  0  0  0
    2.6827    1.1557    1.7775 H   0  0  0  1  0  0  0  0  0  0  0  0
    0.6543    0.9152    2.4495 H   0  0  0  1  0  0  0  0  0  0  0  0
   -1.4119    0.1878    0.5117 H   0  0  0  1  0  0  0  0  0  0  0  0
   -1.0160   -1.2158    2.4948 H   0  0  0  1  0  0  0  0  0  0  0  0
   -2.6565   -0.6451    2.3019 H   0  0  0  1  0  0  0  0  0  0  0  0
   -2.4828    1.3009    4.3228 H   0  0  0  1  0  0  0  0  0  0  0  0
   -2.9325    1.6194   -0.1268 H   0  0  0  1  0  0  0  0  0  0  0  0
   -3.9358    3.5559    1.7745 H   0  0  0  1  0  0  0  0  0  0  0  0
   -4.6222    3.1699    0.2143 H   0  0  0  1  0  0  0  0  0  0  0  0
   -4.3955    5.7291   -0.5839 H   0  0  0  1  0  0  0  0  0  0  0  0
  1  2  1  0  0  0  0
  1 21  1  0  0  0  0
  1 22  1  0  0  0  0
  2  3  1  0  0  0  0
  2  6  1  0  0  0  0
  2 23  1  0  0  0  0
  3  4  2  0  0  0  0
  3  5  1  0  0  0  0
  5 24  1  0  0  0  0
  6  7  1  0  0  0  0
  6 25  1  0  0  0  0
  6 26  1  0  0  0  0
  7  8  1  0  0  0  0
  7 27  1  0  0  0  0
  7 28  1  0  0  0  0
  8  9  2  0  0  0  0
  8 10  1  0  0  0  0
 10 11  1  0  0  0  0
 10 29  1  0  0  0  0
 11 12  1  0  0  0  0
 11 14  1  0  0  0  0
 11 30  1  0  0  0  0
 12 13  2  0  0  0  0
 12 16  1  0  0  0  0
 14 15  1  0  0  0  0
 14 31  1  0  0  0  0
 14 32  1  0  0  0  0
 15 33  1  0  0  0  0
 16 17  1  0  0  0  0
 16 34  1  0  0  0  0
 17 18  1  0  0  0  0
 17 35  1  0  0  0  0
 17 36  1  0  0  0  0
 18 19  2  0  0  0  0
 18 20  1  0  0  0  0
 20 37  1  0  0  0  0
M  END
> <ConfClashScore>
0 

> <ConfOneFourInteractionScore>
-0.986602 

> <ConfScore>
0.0359564 

> <ConfScorePBest>
0.0242067 

> <ConfTolerance>
0.849882 

$$$$
GSH
  CCTOOLS-1004241126

 37 36  0  0  0  0  0  0  0  0999 V2000
    5.1983    2.2151    0.0536 N   0  0  0  1  0  0  0  0  0  0  0  0
    4.9100    0.7785    0.3223 C   0  0  0  1  0  0  0  0  0  0  0  0
    5.9798   -0.1094   -0.3148 C   0  0  0  1  0  0  0  0  0  0  0  0
    5.8438   -1.3412   -0.2346 O   0  0  0  1  0  0  0  0  0  0  0  0
    6.9358    0.4864   -0.8834 O   0  0  0  1  0  0  0  0  0  0  0  0
    3.4905    0.3672   -0.0369 C   0  0  0  1  0  0  0  0  0  0  0  0
    2.4271    1.1987    0.6618 C   0  0  0  1  0  0  0  0  0  0  0  0
    2.3734    0.9575    2.1663 C   0  0  0  1  0  0  0  0  0  0  0  0
    3.0619    0.0490    2.6289 O   0  0  0  1  0  0  0  0  0  0  0  0
    1.5860    1.7404    2.9007 N   0  0  0  1  0  0  0  0  0  0  0  0
    1.5952    1.7068    4.3556 C   0  0  0  1  0  0  0  0  0  0  0  0
    1.0246    0.3825    4.8542 C   0  0  0  1  0  0  0  0  0  0  0  0
    1.3325   -0.0711    5.9556 O   0  0  0  1  0  0  0  0  0  0  0  0
    0.8163    2.8697    4.9274 C   0  0  0  1  0  0  0  0  0  0  0  0
    1.0083    4.4330    4.0384 S   0  0  0  1  0  0  0  0  0  0  0  0
    0.1779   -0.2393    4.0184 N   0  0  0  1  0  0  0  0  0  0  0  0
   -0.5194   -1.4626    4.3862 C   0  0  0  1  0  0  0  0  0  0  0  0
    0.0850   -2.7288    3.8312 C   0  0  0  1  0  0  0  0  0  0  0  0
    1.2181   -2.7078    3.3350 O   0  0  0  1  0  0  0  0  0  0  0  0
   -0.6265   -3.7840    3.9060 O   0  0  0  1  0  0  0  0  0  0  0  0
    4.8647    2.7602    0.7966 H   0  0  0  1  0  0  0  0  0  0  0  0
    4.7539    2.4876   -0.7763 H   0  0  0  1  0  0  0  0  0  0  0  0
    5.0019    0.6418    1.3795 H   0  0  0  1  0  0  0  0  0  0  0  0
    6.8331    0.4212   -1.8356 H   0  0  0  1  0  0  0  0  0  0  0  0
    3.3544   -0.6579    0.2380 H   0  0  0  1  0  0  0  0  0  0  0  0
    3.3637    0.4733   -1.0941 H   0  0  0  1  0  0  0  0  0  0  0  0
    1.4734    0.9534    0.2433 H   0  0  0  1  0  0  0  0  0  0  0  0
    2.6369    2.2338    0.4901 H   0  0  0  1  0  0  0  0  0  0  0  0
    0.9791    2.3610    2.4458 H   0  0  0  1  0  0  0  0  0  0  0  0
    2.6056    1.7836    4.6994 H   0  0  0  1  0  0  0  0  0  0  0  0
    1.1390    3.0205    5.9364 H   0  0  0  1  0  0  0  0  0  0  0  0
   -0.2215    2.6093    4.9195 H   0  0  0  1  0  0  0  0  0  0  0  0
    1.9514    4.3027    3.1096 H   0  0  0  1  0  0  0  0  0  0  0  0
    0.0241    0.1438    3.1296 H   0  0  0  1  0  0  0  0  0  0  0  0
   -1.5261   -1.3911    4.0306 H   0  0  0  1  0  0  0  0  0  0  0  0
   -0.5220   -1.5356    5.4537 H   0  0  0  1  0  0  0  0  0  0  0  0
   -1.1916   -3.7352    4.6805 H   0  0  0  1  0  0  0  0  0  0  0  0
  1  2  1  0  0  0  0
  1 21  1  0  0  0  0
  1 22  1  0  0  0  0
  2  3  1  0  0  0  0
  2  6  1  0  0  0  0
  2 23  1  0  0  0  0
  3  4  2  0  0  0  0
  3  5  1  0  0  0  0
  5 24  1  0  0  0  0
  6  7  1  0  0  0  0
  6 25  1  0  0  0  0
  6 26  1  0  0  0  0
  7  8  1  0  0  0  0
  7 27  1  0  0  0  0
  7 28  1  0  0  0  0
  8  9  2  0  0  0  0
  8 10  1  0  0  0  0
 10 11  1  0  0  0  0
 10 29  1  0  0  0  0
 11 12  1  0  0  0  0
 11 14  1  0  0  0  0
 11 30  1  0  0  0  0
 12 13  2  0  0  0  0
 12 16  1  0  0  0  0
 14 15  1  0  0  0  0
 14 31  1  0  0  0  0
 14 32  1  0  0  0  0
 15 33  1  0  0  0  0
 16 17  1  0  0  0  0
 16 34  1  0  0  0  0
 17 18  1  0  0  0  0
 17 35  1  0  0  0  0
 17 36  1  0  0  0  0
 18 19  2  0  0  0  0
 18 20  1  0  0  0  0
 20 37  1  0  0  0  0
M  END
> <ConfClashScore>
0 

> <ConfOneFourInteractionScore>
-0.959023 

> <ConfScore>
0.0560188 

> <ConfScorePBest>
0.0238409 

> <ConfTolerance>
1.00777 

$$$$
GSH
  CCTOOLS-1004241126

 37 36  0  0  0  0  0  0  0  0999 V2000
    5.1852    2.2167    0.1316 N   0  0  0  1  0  0  0  0  0  0  0  0
    4.9303    0.7720    0.3830 C   0  0  0  1  0  0  0  0  0  0  0  0
    5.9188   -0.0679   -0.4171 C   0  0  0  1  0  0  0  0  0  0  0  0
    6.3490   -1.1142    0.0952 O   0  0  0  1  0  0  0  0  0  0  0  0
    6.2306    0.3707   -1.5585 O   0  0  0  1  0  0  0  0  0  0  0  0
    3.4991    0.4774    0.0079 C   0  0  0  1  0  0  0  0  0  0  0  0
    2.4760    1.4985    0.4781 C   0  0  0  1  0  0  0  0  0  0  0  0
    1.0554    1.0673    0.2296 C   0  0  0  1  0  0  0  0  0  0  0  0
    0.7486   -0.1242    0.2285 O   0  0  0  1  0  0  0  0  0  0  0  0
    0.1402    2.0158    0.0107 N   0  0  0  1  0  0  0  0  0  0  0  0
   -1.2890    1.7137   -0.0991 C   0  0  0  1  0  0  0  0  0  0  0  0
   -1.4290    0.5655   -1.0941 C   0  0  0  1  0  0  0  0  0  0  0  0
   -2.3086   -0.2707   -0.9692 O   0  0  0  1  0  0  0  0  0  0  0  0
   -2.1292    2.8999   -0.5231 C   0  0  0  1  0  0  0  0  0  0  0  0
   -3.4521    3.2904    0.6466 S   0  0  0  1  0  0  0  0  0  0  0  0
   -0.4776    0.5129   -2.0397 N   0  0  0  1  0  0  0  0  0  0  0  0
   -0.4368   -0.5399   -3.0436 C   0  0  0  1  0  0  0  0  0  0  0  0
   -1.3727   -0.3297   -4.2342 C   0  0  0  1  0  0  0  0  0  0  0  0
   -2.3388    0.4377   -4.0926 O   0  0  0  1  0  0  0  0  0  0  0  0
   -1.0882   -0.9623   -5.2883 O   0  0  0  1  0  0  0  0  0  0  0  0
    4.6003    2.7564    0.7034 H   0  0  0  1  0  0  0  0  0  0  0  0
    5.0018    2.4217   -0.8090 H   0  0  0  1  0  0  0  0  0  0  0  0
    5.0634    0.5647    1.4242 H   0  0  0  1  0  0  0  0  0  0  0  0
    5.5170    0.9156   -1.8983 H   0  0  0  1  0  0  0  0  0  0  0  0
    3.2364   -0.4704    0.4292 H   0  0  0  1  0  0  0  0  0  0  0  0
    3.4428    0.4219   -1.0592 H   0  0  0  1  0  0  0  0  0  0  0  0
    2.6488    2.4178   -0.0414 H   0  0  0  1  0  0  0  0  0  0  0  0
    2.6064    1.6521    1.5289 H   0  0  0  1  0  0  0  0  0  0  0  0
    0.4354    2.9459   -0.0795 H   0  0  0  1  0  0  0  0  0  0  0  0
   -1.6467    1.3767    0.8514 H   0  0  0  1  0  0  0  0  0  0  0  0
   -2.5693    2.6822   -1.4739 H   0  0  0  1  0  0  0  0  0  0  0  0
   -1.4910    3.7541   -0.6121 H   0  0  0  1  0  0  0  0  0  0  0  0
   -4.3009    2.2686    0.7142 H   0  0  0  1  0  0  0  0  0  0  0  0
    0.2134    1.2076   -2.0546 H   0  0  0  1  0  0  0  0  0  0  0  0
   -0.7034   -1.4615   -2.5698 H   0  0  0  1  0  0  0  0  0  0  0  0
    0.5644   -0.6060   -3.4154 H   0  0  0  1  0  0  0  0  0  0  0  0
   -0.3127   -1.5071   -5.1356 H   0  0  0  1  0  0  0  0  0  0  0  0
  1  2  1  0  0  0  0
  1 21  1  0  0  0  0
  1 22  1  0  0  0  0
  2  3  1  0  0  0  0
  2  6  1  0  0  0  0
  2 23  1  0  0  0  0
  3  4  2  0  0  0  0
  3  5  1  0  0  0  0
  5 24  1  0  0  0  0
  6  7  1  0  0  0  0
  6 25  1  0  0  0  0
  6 26  1  0  0  0  0
  7  8  1  0  0  0  0
  7 27  1  0  0  0  0
  7 28  1  0  0  0  0
  8  9  2  0  0  0  0
  8 10  1  0  0  0  0
 10 11  1  0  0  0  0
 10 29  1  0  0  0  0
 11 12  1  0  0  0  0
 11 14  1  0  0  0  0
 11 30  1  0  0  0  0
 12 13  2  0  0  0  0
 12 16  1  0  0  0  0
 14 15  1  0  0  0  0
 14 31  1  0  0  0  0
 14 32  1  0  0  0  0
 15 33  1  0  0  0  0
 16 17  1  0  0  0  0
 16 34  1  0  0  0  0
 17 18  1  0  0  0  0
 17 35  1  0  0  0  0
 17 36  1  0  0  0  0
 18 19  2  0  0  0  0
 18 20  1  0  0  0  0
 20 37  1  0  0  0  0
M  END
> <ConfClashScore>
0 

> <ConfOneFourInteractionScore>
-0.943306 

> <ConfScore>
0.0647931 

> <ConfScorePBest>
0.0234751 

> <ConfTolerance>
1.03465 

$$$$
GSH
  CCTOOLS-1004241126

 37 36  0  0  0  0  0  0  0  0999 V2000
    5.1361    2.2490    0.2331 N   0  0  0  1  0  0  0  0  0  0  0  0
    4.9157    0.7815    0.3601 C   0  0  0  1  0  0  0  0  0  0  0  0
    5.8758   -0.0623   -0.4728 C   0  0  0  1  0  0  0  0  0  0  0  0
    6.3319    0.4281   -1.5186 O   0  0  0  1  0  0  0  0  0  0  0  0
    6.1383   -1.2139   -0.0287 O   0  0  0  1  0  0  0  0  0  0  0  0
    3.4826    0.4479    0.1217 C   0  0  0  1  0  0  0  0  0  0  0  0
    2.4374    1.1928    0.9416 C   0  0  0  1  0  0  0  0  0  0  0  0
    1.0308    0.6308    0.7686 C   0  0  0  1  0  0  0  0  0  0  0  0
    0.9033   -0.4191    0.1400 O   0  0  0  1  0  0  0  0  0  0  0  0
    0.0146    1.3032    1.3053 N   0  0  0  1  0  0  0  0  0  0  0  0
   -1.3547    0.8130    1.2556 C   0  0  0  1  0  0  0  0  0  0  0  0
   -1.8117    0.4977   -0.1590 C   0  0  0  1  0  0  0  0  0  0  0  0
   -1.6890    1.3155   -1.0560 O   0  0  0  1  0  0  0  0  0  0  0  0
   -2.2825    1.8020    1.9221 C   0  0  0  1  0  0  0  0  0  0  0  0
   -2.5154    3.2709    0.8930 S   0  0  0  1  0  0  0  0  0  0  0  0
   -2.4159   -0.6845   -0.3086 N   0  0  0  1  0  0  0  0  0  0  0  0
   -2.8891   -1.1576   -1.6010 C   0  0  0  1  0  0  0  0  0  0  0  0
   -4.3259   -0.7624   -1.9434 C   0  0  0  1  0  0  0  0  0  0  0  0
   -4.8751   -1.3235   -2.9056 O   0  0  0  1  0  0  0  0  0  0  0  0
   -4.8539    0.1186   -1.2105 O   0  0  0  1  0  0  0  0  0  0  0  0
    4.3217    2.7261    0.4968 H   0  0  0  1  0  0  0  0  0  0  0  0
    5.3554    2.4669   -0.6968 H   0  0  0  1  0  0  0  0  0  0  0  0
    5.1116    0.5321    1.3820 H   0  0  0  1  0  0  0  0  0  0  0  0
    6.5858   -1.7247   -0.7072 H   0  0  0  1  0  0  0  0  0  0  0  0
    3.3602   -0.5963    0.3205 H   0  0  0  1  0  0  0  0  0  0  0  0
    3.2768    0.6415   -0.9103 H   0  0  0  1  0  0  0  0  0  0  0  0
    2.4340    2.2188    0.6378 H   0  0  0  1  0  0  0  0  0  0  0  0
    2.7055    1.1274    1.9754 H   0  0  0  1  0  0  0  0  0  0  0  0
    0.1951    2.1580    1.7493 H   0  0  0  1  0  0  0  0  0  0  0  0
   -1.4039   -0.0964    1.8172 H   0  0  0  1  0  0  0  0  0  0  0  0
   -1.8630    2.0963    2.8614 H   0  0  0  1  0  0  0  0  0  0  0  0
   -3.2316    1.3356    2.0852 H   0  0  0  1  0  0  0  0  0  0  0  0
   -1.5620    4.1580    1.1632 H   0  0  0  1  0  0  0  0  0  0  0  0
   -2.5448   -1.2528    0.4792 H   0  0  0  1  0  0  0  0  0  0  0  0
   -2.8278   -2.2258   -1.6067 H   0  0  0  1  0  0  0  0  0  0  0  0
   -2.2455   -0.7588   -2.3570 H   0  0  0  1  0  0  0  0  0  0  0  0
   -5.1521    0.8513   -1.7543 H   0  0  0  1  0  0  0  0  0  0  0  0
  1  2  1  0  0  0  0
  1 21  1  0  0  0  0
  1 22  1  0  0  0  0
  2  3  1  0  0  0  0
  2  6  1  0  0  0  0
  2 23  1  0  0  0  0
  3  4  2  0  0  0  0
  3  5  1  0  0  0  0
  5 24  1  0  0  0  0
  6  7  1  0  0  0  0
  6 25  1  0  0  0  0
  6 26  1  0  0  0  0
  7  8  1  0  0  0  0
  7 27  1  0  0  0  0
  7 28  1  0  0  0  0
  8  9  2  0  0  0  0
  8 10  1  0  0  0  0
 10 11  1  0  0  0  0
 10 29  1  0  0  0  0
 11 12  1  0  0  0  0
 11 14  1  0  0  0  0
 11 30  1  0  0  0  0
 12 13  2  0  0  0  0
 12 16  1  0  0  0  0
 14 15  1  0  0  0  0
 14 31  1  0  0  0  0
 14 32  1  0  0  0  0
 15 33  1  0  0  0  0
 16 17  1  0  0  0  0
 16 34  1  0  0  0  0
 17 18  1  0  0  0  0
 17 35  1  0  0  0  0
 17 36  1  0  0  0  0
 18 19  2  0  0  0  0
 18 20  1  0  0  0  0
 20 37  1  0  0  0  0
M  END
> <ConfClashScore>
0 

> <ConfOneFourInteractionScore>
-0.985538 

> <ConfScore>
0.0688597 

> <ConfScorePBest>
0.0231093 

> <ConfTolerance>
0.868425 

$$$$
GSH
  CCTOOLS-1004241126

 37 36  0  0  0  0  0  0  0  0999 V2000
    4.7907    2.2103   -0.1241 N   0  0  0  1  0  0  0  0  0  0  0  0
    4.7786    0.7934    0.3115 C   0  0  0  1  0  0  0  0  0  0  0  0
    6.1334    0.1298    0.0633 C   0  0  0  1  0  0  0  0  0  0  0  0
    6.9102    0.6660   -0.7438 O   0  0  0  1  0  0  0  0  0  0  0  0
    6.3639   -0.9302    0.7078 O   0  0  0  1  0  0  0  0  0  0  0  0
    3.6851    0.0075   -0.3862 C   0  0  0  1  0  0  0  0  0  0  0  0
    2.2845    0.4833   -0.0368 C   0  0  0  1  0  0  0  0  0  0  0  0
    1.1578   -0.2192   -0.7692 C   0  0  0  1  0  0  0  0  0  0  0  0
    1.2169   -0.4292   -1.9695 O   0  0  0  1  0  0  0  0  0  0  0  0
    0.1106   -0.5861   -0.0136 N   0  0  0  1  0  0  0  0  0  0  0  0
   -1.0039   -1.3533   -0.5496 C   0  0  0  1  0  0  0  0  0  0  0  0
   -1.7866   -1.9304    0.6261 C   0  0  0  1  0  0  0  0  0  0  0  0
   -1.4504   -1.7125    1.7785 O   0  0  0  1  0  0  0  0  0  0  0  0
   -0.5577   -2.5161   -1.4107 C   0  0  0  1  0  0  0  0  0  0  0  0
    0.2320   -3.8406   -0.4657 S   0  0  0  1  0  0  0  0  0  0  0  0
   -2.8521   -2.6812    0.3050 N   0  0  0  1  0  0  0  0  0  0  0  0
   -3.6170   -3.4128    1.3038 C   0  0  0  1  0  0  0  0  0  0  0  0
   -4.9625   -3.9065    0.7706 C   0  0  0  1  0  0  0  0  0  0  0  0
   -5.4120   -3.4570   -0.2739 O   0  0  0  1  0  0  0  0  0  0  0  0
   -5.4953   -4.7861    1.5241 O   0  0  0  1  0  0  0  0  0  0  0  0
    5.6897    2.4503   -0.4319 H   0  0  0  1  0  0  0  0  0  0  0  0
    4.5391    2.7854    0.6285 H   0  0  0  1  0  0  0  0  0  0  0  0
    4.5824    0.7643    1.3630 H   0  0  0  1  0  0  0  0  0  0  0  0
    6.0006   -1.6804    0.2314 H   0  0  0  1  0  0  0  0  0  0  0  0
    3.7741   -1.0209   -0.1047 H   0  0  0  1  0  0  0  0  0  0  0  0
    3.8216    0.1015   -1.4433 H   0  0  0  1  0  0  0  0  0  0  0  0
    2.2246    1.5275   -0.2630 H   0  0  0  1  0  0  0  0  0  0  0  0
    2.1381    0.3363    1.0128 H   0  0  0  1  0  0  0  0  0  0  0  0
    0.0961   -0.3284    0.9318 H   0  0  0  1  0  0  0  0  0  0  0  0
   -1.6466   -0.7197   -1.1244 H   0  0  0  1  0  0  0  0  0  0  0  0
    0.1401   -2.1536   -2.1364 H   0  0  0  1  0  0  0  0  0  0  0  0
   -1.4147   -2.9185   -1.9092 H   0  0  0  1  0  0  0  0  0  0  0  0
    0.5096   -3.4065    0.7604 H   0  0  0  1  0  0  0  0  0  0  0  0
   -3.1244   -2.7386   -0.6346 H   0  0  0  1  0  0  0  0  0  0  0  0
   -3.7955   -2.7676    2.1386 H   0  0  0  1  0  0  0  0  0  0  0  0
   -3.0438   -4.2584    1.6221 H   0  0  0  1  0  0  0  0  0  0  0  0
   -4.8210   -5.1817    2.0812 H   0  0  0  1  0  0  0  0  0  0  0  0
  1  2  1  0  0  0  0
  1 21  1  0  0  0  0
  1 22  1  0  0  0  0
  2  3  1  0  0  0  0
  2  6  1  0  0  0  0
  2 23  1  0  0  0  0
  3  4  2  0  0  0  0
  3  5  1  0  0  0  0
  5 24  1  0  0  0  0
  6  7  1  0  0  0  0
  6 25  1  0  0  0  0
  6 26  1  0  0  0  0
  7  8  1  0  0  0  0
  7 27  1  0  0  0  0
  7 28  1  0  0  0  0
  8  9  2  0  0  0  0
  8 10  1  0  0  0  0
 10 11  1  0  0  0  0
 10 29  1  0  0  0  0
 11 12  1  0  0  0  0
 11 14  1  0  0  0  0
 11 30  1  0  0  0  0
 12 13  2  0  0  0  0
 12 16  1  0  0  0  0
 14 15  1  0  0  0  0
 14 31  1  0  0  0  0
 14 32  1  0  0  0  0
 15 33  1  0  0  0  0
 16 17  1  0  0  0  0
 16 34  1  0  0  0  0
 17 18  1  0  0  0  0
 17 35  1  0  0  0  0
 17 36  1  0  0  0  0
 18 19  2  0  0  0  0
 18 20  1  0  0  0  0
 20 37  1  0  0  0  0
M  END
> <ConfClashScore>
0 

> <ConfOneFourInteractionScore>
-0.968353 

> <ConfScore>
0.0720624 

> <ConfScorePBest>
0.0227435 

> <ConfTolerance>
1.11366 

$$$$
GSH
  CCTOOLS-1004241126

 37 36  0  0  0  0  0  0  0  0999 V2000
    5.1561    2.1857   -0.0733 N   0  0  0  1  0  0  0  0  0  0  0  0
    4.8951    0.7680    0.3105 C   0  0  0  1  0  0  0  0  0  0  0  0
    6.0511   -0.0839   -0.1602 C   0  0  0  1  0  0  0  0  0  0  0  0
    6.7517    0.2151   -1.1027 O   0  0  0  1  0  0  0  0  0  0  0  0
    6.2037   -1.1667    0.5599 O   0  0  0  1  0  0  0  0  0  0  0  0
    3.5406    0.2956   -0.1937 C   0  0  0  1  0  0  0  0  0  0  0  0
    3.0399   -0.9566    0.5076 C   0  0  0  1  0  0  0  0  0  0  0  0
    1.7652   -1.5085   -0.1005 C   0  0  0  1  0  0  0  0  0  0  0  0
    0.6696   -1.2061    0.3430 O   0  0  0  1  0  0  0  0  0  0  0  0
    1.9281   -2.3385   -1.1430 N   0  0  0  1  0  0  0  0  0  0  0  0
    0.8015   -2.8923   -1.8791 C   0  0  0  1  0  0  0  0  0  0  0  0
   -0.2619   -3.3110   -0.8961 C   0  0  0  1  0  0  0  0  0  0  0  0
   -1.4612   -3.2585   -1.1134 O   0  0  0  1  0  0  0  0  0  0  0  0
    1.2450   -4.0124   -2.7964 C   0  0  0  1  0  0  0  0  0  0  0  0
    2.6386   -3.5567   -3.8552 S   0  0  0  1  0  0  0  0  0  0  0  0
    0.2313   -3.7582    0.2688 N   0  0  0  1  0  0  0  0  0  0  0  0
   -0.6656   -4.2742    1.2921 C   0  0  0  1  0  0  0  0  0  0  0  0
   -1.5077   -3.2301    1.9826 C   0  0  0  1  0  0  0  0  0  0  0  0
   -1.1940   -2.0610    2.0413 O   0  0  0  1  0  0  0  0  0  0  0  0
   -2.6008   -3.7291    2.5026 O   0  0  0  1  0  0  0  0  0  0  0  0
    5.2921    2.7236    0.7345 H   0  0  0  1  0  0  0  0  0  0  0  0
    4.3888    2.5352   -0.5729 H   0  0  0  1  0  0  0  0  0  0  0  0
    4.8753    0.7169    1.3791 H   0  0  0  1  0  0  0  0  0  0  0  0
    6.1130   -1.9403   -0.0013 H   0  0  0  1  0  0  0  0  0  0  0  0
    3.6214    0.0889   -1.2404 H   0  0  0  1  0  0  0  0  0  0  0  0
    2.8286    1.0791   -0.0383 H   0  0  0  1  0  0  0  0  0  0  0  0
    2.8529   -0.7203    1.5343 H   0  0  0  1  0  0  0  0  0  0  0  0
    3.7994   -1.7079    0.4466 H   0  0  0  1  0  0  0  0  0  0  0  0
    2.8373   -2.5798   -1.4178 H   0  0  0  1  0  0  0  0  0  0  0  0
    0.3872   -2.1201   -2.4931 H   0  0  0  1  0  0  0  0  0  0  0  0
    0.4202   -4.2880   -3.4199 H   0  0  0  1  0  0  0  0  0  0  0  0
    1.5339   -4.8495   -2.1957 H   0  0  0  1  0  0  0  0  0  0  0  0
    3.7288   -4.2071   -3.4585 H   0  0  0  1  0  0  0  0  0  0  0  0
    1.1976   -3.7374    0.4309 H   0  0  0  1  0  0  0  0  0  0  0  0
   -0.0740   -4.7681    2.0344 H   0  0  0  1  0  0  0  0  0  0  0  0
   -1.3239   -4.9809    0.8316 H   0  0  0  1  0  0  0  0  0  0  0  0
   -3.0337   -3.0617    3.0399 H   0  0  0  1  0  0  0  0  0  0  0  0
  1  2  1  0  0  0  0
  1 21  1  0  0  0  0
  1 22  1  0  0  0  0
  2  3  1  0  0  0  0
  2  6  1  0  0  0  0
  2 23  1  0  0  0  0
  3  4  2  0  0  0  0
  3  5  1  0  0  0  0
  5 24  1  0  0  0  0
  6  7  1  0  0  0  0
  6 25  1  0  0  0  0
  6 26  1  0  0  0  0
  7  8  1  0  0  0  0
  7 27  1  0  0  0  0
  7 28  1  0  0  0  0
  8  9  2  0  0  0  0
  8 10  1  0  0  0  0
 10 11  1  0  0  0  0
 10 29  1  0  0  0  0
 11 12  1  0  0  0  0
 11 14  1  0  0  0  0
 11 30  1  0  0  0  0
 12 13  2  0  0  0  0
 12 16  1  0  0  0  0
 14 15  1  0  0  0  0
 14 31  1  0  0  0  0
 14 32  1  0  0  0  0
 15 33  1  0  0  0  0
 16 17  1  0  0  0  0
 16 34  1  0  0  0  0
 17 18  1  0  0  0  0
 17 35  1  0  0  0  0
 17 36  1  0  0  0  0
 18 19  2  0  0  0  0
 18 20  1  0  0  0  0
 20 37  1  0  0  0  0
M  END
> <ConfClashScore>
0 

> <ConfOneFourInteractionScore>
-0.951508 

> <ConfScore>
0.0780118 

> <ConfScorePBest>
0.0223777 

> <ConfTolerance>
0.889444 

$$$$
GSH
  CCTOOLS-1004241126

 37 36  0  0  0  0  0  0  0  0999 V2000
    5.1831    2.2042    0.0082 N   0  0  0  1  0  0  0  0  0  0  0  0
    4.9317    0.7752    0.3441 C   0  0  0  1  0  0  0  0  0  0  0  0
    5.9893   -0.1278   -0.2735 C   0  0  0  1  0  0  0  0  0  0  0  0
    7.1542    0.2727   -0.3887 O   0  0  0  1  0  0  0  0  0  0  0  0
    5.6064   -1.2838   -0.6507 O   0  0  0  1  0  0  0  0  0  0  0  0
    3.5283    0.3927   -0.1274 C   0  0  0  1  0  0  0  0  0  0  0  0
    3.1513   -0.9325    0.5145 C   0  0  0  1  0  0  0  0  0  0  0  0
    1.7261   -1.3540    0.2139 C   0  0  0  1  0  0  0  0  0  0  0  0
    1.3946   -1.7282   -0.9102 O   0  0  0  1  0  0  0  0  0  0  0  0
    0.8691   -1.2899    1.2452 N   0  0  0  1  0  0  0  0  0  0  0  0
   -0.5322   -1.6607    1.1158 C   0  0  0  1  0  0  0  0  0  0  0  0
   -1.3182   -0.4471    0.6484 C   0  0  0  1  0  0  0  0  0  0  0  0
   -2.5460   -0.5236    0.6419 O   0  0  0  1  0  0  0  0  0  0  0  0
   -1.0601   -2.2578    2.4007 C   0  0  0  1  0  0  0  0  0  0  0  0
   -1.2503   -1.0896    3.7683 S   0  0  0  1  0  0  0  0  0  0  0  0
   -0.6381    0.6363    0.2701 N   0  0  0  1  0  0  0  0  0  0  0  0
   -1.2373    1.9133   -0.0879 C   0  0  0  1  0  0  0  0  0  0  0  0
   -0.2083    2.9740   -0.3898 C   0  0  0  1  0  0  0  0  0  0  0  0
    0.6888    3.2606    0.3729 O   0  0  0  1  0  0  0  0  0  0  0  0
   -0.3964    3.5397   -1.5555 O   0  0  0  1  0  0  0  0  0  0  0  0
    5.0008    2.7618    0.7932 H   0  0  0  1  0  0  0  0  0  0  0  0
    4.5954    2.4747   -0.7279 H   0  0  0  1  0  0  0  0  0  0  0  0
    4.9705    0.6602    1.4072 H   0  0  0  1  0  0  0  0  0  0  0  0
    5.7707   -1.3848   -1.5911 H   0  0  0  1  0  0  0  0  0  0  0  0
    3.5196    0.2935   -1.1927 H   0  0  0  1  0  0  0  0  0  0  0  0
    2.8299    1.1482    0.1667 H   0  0  0  1  0  0  0  0  0  0  0  0
    3.2630   -0.8414    1.5748 H   0  0  0  1  0  0  0  0  0  0  0  0
    3.8143   -1.6887    0.1492 H   0  0  0  1  0  0  0  0  0  0  0  0
    1.1986   -0.9827    2.1156 H   0  0  0  1  0  0  0  0  0  0  0  0
   -0.6139   -2.4104    0.3567 H   0  0  0  1  0  0  0  0  0  0  0  0
   -0.3828   -3.0253    2.7123 H   0  0  0  1  0  0  0  0  0  0  0  0
   -2.0183   -2.6882    2.1969 H   0  0  0  1  0  0  0  0  0  0  0  0
   -0.0696   -0.5511    4.0596 H   0  0  0  1  0  0  0  0  0  0  0  0
    0.3387    0.5671    0.2302 H   0  0  0  1  0  0  0  0  0  0  0  0
   -1.8441    2.2473    0.7276 H   0  0  0  1  0  0  0  0  0  0  0  0
   -1.8491    1.7733   -0.9545 H   0  0  0  1  0  0  0  0  0  0  0  0
   -0.7308    4.4306   -1.4292 H   0  0  0  1  0  0  0  0  0  0  0  0
  1  2  1  0  0  0  0
  1 21  1  0  0  0  0
  1 22  1  0  0  0  0
  2  3  1  0  0  0  0
  2  6  1  0  0  0  0
  2 23  1  0  0  0  0
  3  4  2  0  0  0  0
  3  5  1  0  0  0  0
  5 24  1  0  0  0  0
  6  7  1  0  0  0  0
  6 25  1  0  0  0  0
  6 26  1  0  0  0  0
  7  8  1  0  0  0  0
  7 27  1  0  0  0  0
  7 28  1  0  0  0  0
  8  9  2  0  0  0  0
  8 10  1  0  0  0  0
 10 11  1  0  0  0  0
 10 29  1  0  0  0  0
 11 12  1  0  0  0  0
 11 14  1  0  0  0  0
 11 30  1  0  0  0  0
 12 13  2  0  0  0  0
 12 16  1  0  0  0  0
 14 15  1  0  0  0  0
 14 31  1  0  0  0  0
 14 32  1  0  0  0  0
 15 33  1  0  0  0  0
 16 17  1  0  0  0  0
 16 34  1  0  0  0  0
 17 18  1  0  0  0  0
 17 35  1  0  0  0  0
 17 36  1  0  0  0  0
 18 19  2  0  0  0  0
 18 20  1  0  0  0  0
 20 37  1  0  0  0  0
M  END
> <ConfClashScore>
0 

> <ConfOneFourInteractionScore>
-0.960112 

> <ConfScore>
0.0964079 

> <ConfScorePBest>
0.0220119 

> <ConfTolerance>
1.28051 

$$$$
GSH
  CCTOOLS-1004241126

 37 36  0  0  0  0  0  0  0  0999 V2000
    4.7567    2.2758    0.2045 N   0  0  0  1  0  0  0  0  0  0  0  0
    4.7857    0.7993    0.3998 C   0  0  0  1  0  0  0  0  0  0  0  0
    6.0006    0.1874   -0.2982 C   0  0  0  1  0  0  0  0  0  0  0  0
    6.2905    0.5941   -1.4353 O   0  0  0  1  0  0  0  0  0  0  0  0
    6.6276   -0.6993    0.3444 O   0  0  0  1  0  0  0  0  0  0  0  0
    3.5311    0.1419   -0.1518 C   0  0  0  1  0  0  0  0  0  0  0  0
    2.2680    0.5284    0.6002 C   0  0  0  1  0  0  0  0  0  0  0  0
    0.9879   -0.2016    0.2427 C   0  0  0  1  0  0  0  0  0  0  0  0
    0.4918   -0.1029   -0.8675 O   0  0  0  1  0  0  0  0  0  0  0  0
    0.4512   -0.9501    1.2193 N   0  0  0  1  0  0  0  0  0  0  0  0
   -0.8213   -1.6238    1.0079 C   0  0  0  1  0  0  0  0  0  0  0  0
   -1.6172   -1.7933    2.2987 C   0  0  0  1  0  0  0  0  0  0  0  0
   -2.6539   -2.4360    2.3234 O   0  0  0  1  0  0  0  0  0  0  0  0
   -0.5951   -2.9561    0.3250 C   0  0  0  1  0  0  0  0  0  0  0  0
   -0.4565   -2.8205   -1.4732 S   0  0  0  1  0  0  0  0  0  0  0  0
   -1.1023   -1.1945    3.3842 N   0  0  0  1  0  0  0  0  0  0  0  0
   -1.8240   -1.1178    4.6456 C   0  0  0  1  0  0  0  0  0  0  0  0
   -3.2735   -0.6455    4.5293 C   0  0  0  1  0  0  0  0  0  0  0  0
   -3.6487   -0.1644    3.4476 O   0  0  0  1  0  0  0  0  0  0  0  0
   -3.9910   -0.7823    5.5582 O   0  0  0  1  0  0  0  0  0  0  0  0
    4.7023    2.4782   -0.7528 H   0  0  0  1  0  0  0  0  0  0  0  0
    5.5734    2.6703    0.5757 H   0  0  0  1  0  0  0  0  0  0  0  0
    4.8492    0.5880    1.4468 H   0  0  0  1  0  0  0  0  0  0  0  0
    7.2709   -1.1182   -0.2321 H   0  0  0  1  0  0  0  0  0  0  0  0
    3.6501   -0.9197   -0.0921 H   0  0  0  1  0  0  0  0  0  0  0  0
    3.4184    0.4317   -1.1757 H   0  0  0  1  0  0  0  0  0  0  0  0
    2.1002    1.5713    0.4295 H   0  0  0  1  0  0  0  0  0  0  0  0
    2.4515    0.3618    1.6411 H   0  0  0  1  0  0  0  0  0  0  0  0
    0.9173   -1.0431    2.0763 H   0  0  0  1  0  0  0  0  0  0  0  0
   -1.4110   -1.0239    0.3467 H   0  0  0  1  0  0  0  0  0  0  0  0
   -1.4181   -3.6001    0.5549 H   0  0  0  1  0  0  0  0  0  0  0  0
    0.3095   -3.3834    0.7044 H   0  0  0  1  0  0  0  0  0  0  0  0
   -1.6345   -2.4745   -1.9845 H   0  0  0  1  0  0  0  0  0  0  0  0
   -0.2093   -0.7951    3.3252 H   0  0  0  1  0  0  0  0  0  0  0  0
   -1.3029   -0.4371    5.2859 H   0  0  0  1  0  0  0  0  0  0  0  0
   -1.8264   -2.0926    5.0870 H   0  0  0  1  0  0  0  0  0  0  0  0
   -4.7700   -1.2988    5.3392 H   0  0  0  1  0  0  0  0  0  0  0  0
  1  2  1  0  0  0  0
  1 21  1  0  0  0  0
  1 22  1  0  0  0  0
  2  3  1  0  0  0  0
  2  6  1  0  0  0  0
  2 23  1  0  0  0  0
  3  4  2  0  0  0  0
  3  5  1  0  0  0  0
  5 24  1  0  0  0  0
  6  7  1  0  0  0  0
  6 25  1  0  0  0  0
  6 26  1  0  0  0  0
  7  8  1  0  0  0  0
  7 27  1  0  0  0  0
  7 28  1  0  0  0  0
  8  9  2  0  0  0  0
  8 10  1  0  0  0  0
 10 11  1  0  0  0  0
 10 29  1  0  0  0  0
 11 12  1  0  0  0  0
 11 14  1  0  0  0  0
 11 30  1  0  0  0  0
 12 13  2  0  0  0  0
 12 16  1  0  0  0  0
 14 15  1  0  0  0  0
 14 31  1  0  0  0  0
 14 32  1  0  0  0  0
 15 33  1  0  0  0  0
 16 17  1  0  0  0  0
 16 34  1  0  0  0  0
 17 18  1  0  0  0  0
 17 35  1  0  0  0  0
 17 36  1  0  0  0  0
 18 19  2  0  0  0  0
 18 20  1  0  0  0  0
 20 37  1  0  0  0  0
M  END
> <ConfClashScore>
0 

> <ConfOneFourInteractionScore>
-0.942867 

> <ConfScore>
0.104347 

> <ConfScorePBest>
0.0216461 

> <ConfTolerance>
1.01556 

$$$$
GSH
  CCTOOLS-1004241126

 37 36  0  0  0  0  0  0  0  0999 V2000
    5.0567    2.1755   -0.1612 N   0  0  0  1  0  0  0  0  0  0  0  0
    4.8652    0.7724    0.3002 C   0  0  0  1  0  0  0  0  0  0  0  0
    6.0978   -0.0432   -0.0149 C   0  0  0  1  0  0  0  0  0  0  0  0
    6.5531   -0.8724    0.7426 O   0  0  0  1  0  0  0  0  0  0  0  0
    6.6076    0.2477   -1.1853 O   0  0  0  1  0  0  0  0  0  0  0  0
    3.6166    0.1811   -0.3254 C   0  0  0  1  0  0  0  0  0  0  0  0
    3.8643   -0.1852   -1.7797 C   0  0  0  1  0  0  0  0  0  0  0  0
    2.7390   -1.0000   -2.3869 C   0  0  0  1  0  0  0  0  0  0  0  0
    1.5823   -0.8927   -1.9816 O   0  0  0  1  0  0  0  0  0  0  0  0
    3.0912   -1.8313   -3.3804 N   0  0  0  1  0  0  0  0  0  0  0  0
    2.1211   -2.6573   -4.0837 C   0  0  0  1  0  0  0  0  0  0  0  0
    2.4661   -4.1338   -3.9661 C   0  0  0  1  0  0  0  0  0  0  0  0
    3.6260   -4.4976   -3.7762 O   0  0  0  1  0  0  0  0  0  0  0  0
    1.9419   -2.2380   -5.5275 C   0  0  0  1  0  0  0  0  0  0  0  0
    2.8966   -3.2467   -6.6860 S   0  0  0  1  0  0  0  0  0  0  0  0
    1.4735   -5.0214   -4.0750 N   0  0  0  1  0  0  0  0  0  0  0  0
    1.6999   -6.4560   -3.9836 C   0  0  0  1  0  0  0  0  0  0  0  0
    0.6361   -7.3084   -4.6292 C   0  0  0  1  0  0  0  0  0  0  0  0
   -0.3030   -6.8491   -5.2422 O   0  0  0  1  0  0  0  0  0  0  0  0
    0.8042   -8.5822   -4.3771 O   0  0  0  1  0  0  0  0  0  0  0  0
    5.6397    2.6500    0.4676 H   0  0  0  1  0  0  0  0  0  0  0  0
    4.1876    2.6263   -0.2045 H   0  0  0  1  0  0  0  0  0  0  0  0
    4.7353    0.7788    1.3623 H   0  0  0  1  0  0  0  0  0  0  0  0
    7.0737    1.0854   -1.1326 H   0  0  0  1  0  0  0  0  0  0  0  0
    2.8249    0.8991   -0.2744 H   0  0  0  1  0  0  0  0  0  0  0  0
    3.3363   -0.6987    0.2152 H   0  0  0  1  0  0  0  0  0  0  0  0
    4.7677   -0.7556   -1.8381 H   0  0  0  1  0  0  0  0  0  0  0  0
    3.9745    0.7171   -2.3441 H   0  0  0  1  0  0  0  0  0  0  0  0
    4.0344   -1.8837   -3.6412 H   0  0  0  1  0  0  0  0  0  0  0  0
    1.1739   -2.5219   -3.6047 H   0  0  0  1  0  0  0  0  0  0  0  0
    2.2538   -1.2192   -5.6269 H   0  0  0  1  0  0  0  0  0  0  0  0
    0.9052   -2.3203   -5.7793 H   0  0  0  1  0  0  0  0  0  0  0  0
    4.1956   -3.0445   -6.4848 H   0  0  0  1  0  0  0  0  0  0  0  0
    0.5611   -4.6950   -4.2215 H   0  0  0  1  0  0  0  0  0  0  0  0
    1.7532   -6.7188   -2.9477 H   0  0  0  1  0  0  0  0  0  0  0  0
    2.6343   -6.6758   -4.4564 H   0  0  0  1  0  0  0  0  0  0  0  0
    0.0133   -8.9337   -3.9616 H   0  0  0  1  0  0  0  0  0  0  0  0
  1  2  1  0  0  0  0
  1 21  1  0  0  0  0
  1 22  1  0  0  0  0
  2  3  1  0  0  0  0
  2  6  1  0  0  0  0
  2 23  1  0  0  0  0
  3  4  2  0  0  0  0
  3  5  1  0  0  0  0
  5 24  1  0  0  0  0
  6  7  1  0  0  0  0
  6 25  1  0  0  0  0
  6 26  1  0  0  0  0
  7  8  1  0  0  0  0
  7 27  1  0  0  0  0
  7 28  1  0  0  0  0
  8  9  2  0  0  0  0
  8 10  1  0  0  0  0
 10 11  1  0  0  0  0
 10 29  1  0  0  0  0
 11 12  1  0  0  0  0
 11 14  1  0  0  0  0
 11 30  1  0  0  0  0
 12 13  2  0  0  0  0
 12 16  1  0  0  0  0
 14 15  1  0  0  0  0
 14 31  1  0  0  0  0
 14 32  1  0  0  0  0
 15 33  1  0  0  0  0
 16 17  1  0  0  0  0
 16 34  1  0  0  0  0
 17 18  1  0  0  0  0
 17 35  1  0  0  0  0
 17 36  1  0  0  0  0
 18 19  2  0  0  0  0
 18 20  1  0  0  0  0
 20 37  1  0  0  0  0
M  END
> <ConfClashScore>
0 

> <ConfOneFourInteractionScore>
-0.975648 

> <ConfScore>
0.10472 

> <ConfScorePBest>
0.0212803 

> <ConfTolerance>
0.971103 

$$$$
GSH
  CCTOOLS-1004241126

 37 36  0  0  0  0  0  0  0  0999 V2000
    4.8663    2.2748    0.2973 N   0  0  0  1  0  0  0  0  0  0  0  0
    4.8105    0.7789    0.3956 C   0  0  0  1  0  0  0  0  0  0  0  0
    5.9403    0.1955   -0.4213 C   0  0  0  1  0  0  0  0  0  0  0  0
    6.6785    0.8706   -1.1052 O   0  0  0  1  0  0  0  0  0  0  0  0
    6.0256   -1.1058   -0.3041 O   0  0  0  1  0  0  0  0  0  0  0  0
    3.4387    0.2470    0.0118 C   0  0  0  1  0  0  0  0  0  0  0  0
    2.3150    0.7890    0.8854 C   0  0  0  1  0  0  0  0  0  0  0  0
    0.9900    0.0403    0.6932 C   0  0  0  1  0  0  0  0  0  0  0  0
    0.9974   -1.1529    0.4390 O   0  0  0  1  0  0  0  0  0  0  0  0
   -0.1362    0.7399    0.9037 N   0  0  0  1  0  0  0  0  0  0  0  0
   -1.4560    0.1867    0.6390 C   0  0  0  1  0  0  0  0  0  0  0  0
   -2.5362    1.1609    1.0996 C   0  0  0  1  0  0  0  0  0  0  0  0
   -2.5837    1.4449    2.2956 O   0  0  0  1  0  0  0  0  0  0  0  0
   -1.6256   -1.1558    1.3184 C   0  0  0  1  0  0  0  0  0  0  0  0
   -3.2260   -1.9278    0.9811 S   0  0  0  1  0  0  0  0  0  0  0  0
   -3.3767    1.6565    0.1786 N   0  0  0  1  0  0  0  0  0  0  0  0
   -4.5149    2.4827    0.5901 C   0  0  0  1  0  0  0  0  0  0  0  0
   -5.6387    1.6146    1.1002 C   0  0  0  1  0  0  0  0  0  0  0  0
   -5.6027    0.4035    1.0732 O   0  0  0  1  0  0  0  0  0  0  0  0
   -6.6418    2.3139    1.5681 O   0  0  0  1  0  0  0  0  0  0  0  0
    4.3601    2.5701   -0.4881 H   0  0  0  1  0  0  0  0  0  0  0  0
    5.7994    2.5617    0.2112 H   0  0  0  1  0  0  0  0  0  0  0  0
    4.9837    0.5131    1.4174 H   0  0  0  1  0  0  0  0  0  0  0  0
    5.4946   -1.5244   -0.9857 H   0  0  0  1  0  0  0  0  0  0  0  0
    3.4518   -0.8194    0.0988 H   0  0  0  1  0  0  0  0  0  0  0  0
    3.2408    0.5201   -1.0036 H   0  0  0  1  0  0  0  0  0  0  0  0
    2.1620    1.8198    0.6428 H   0  0  0  1  0  0  0  0  0  0  0  0
    2.6090    0.7031    1.9107 H   0  0  0  1  0  0  0  0  0  0  0  0
   -0.0672    1.6549    1.2477 H   0  0  0  1  0  0  0  0  0  0  0  0
   -1.5676    0.0407   -0.4151 H   0  0  0  1  0  0  0  0  0  0  0  0
   -1.5314   -1.0164    2.3751 H   0  0  0  1  0  0  0  0  0  0  0  0
   -0.8529   -1.8111    0.9743 H   0  0  0  1  0  0  0  0  0  0  0  0
   -3.6423   -1.5749   -0.2318 H   0  0  0  1  0  0  0  0  0  0  0  0
   -3.2292    1.4655   -0.7712 H   0  0  0  1  0  0  0  0  0  0  0  0
   -4.8606    3.0494   -0.2491 H   0  0  0  1  0  0  0  0  0  0  0  0
   -4.2039    3.1491    1.3673 H   0  0  0  1  0  0  0  0  0  0  0  0
   -7.3333    1.7203    1.8697 H   0  0  0  1  0  0  0  0  0  0  0  0
  1  2  1  0  0  0  0
  1 21  1  0  0  0  0
  1 22  1  0  0  0  0
  2  3  1  0  0  0  0
  2  6  1  0  0  0  0
  2 23  1  0  0  0  0
  3  4  2  0  0  0  0
  3  5  1  0  0  0  0
  5 24  1  0  0  0  0
  6  7  1  0  0  0  0
  6 25  1  0  0  0  0
  6 26  1  0  0  0  0
  7  8  1  0  0  0  0
  7 27  1  0  0  0  0
  7 28  1  0  0  0  0
  8  9  2  0  0  0  0
  8 10  1  0  0  0  0
 10 11  1  0  0  0  0
 10 29  1  0  0  0  0
 11 12  1  0  0  0  0
 11 14  1  0  0  0  0
 11 30  1  0  0  0  0
 12 13  2  0  0  0  0
 12 16  1  0  0  0  0
 14 15  1  0  0  0  0
 14 31  1  0  0  0  0
 14 32  1  0  0  0  0
 15 33  1  0  0  0  0
 16 17  1  0  0  0  0
 16 34  1  0  0  0  0
 17 18  1  0  0  0  0
 17 35  1  0  0  0  0
 17 36  1  0  0  0  0
 18 19  2  0  0  0  0
 18 20  1  0  0  0  0
 20 37  1  0  0  0  0
M  END
> <ConfClashScore>
0 

> <ConfOneFourInteractionScore>
-0.971125 

> <ConfScore>
0.108193 

> <ConfScorePBest>
0.0209145 

> <ConfTolerance>
1.05569 

$$$$
GSH
  CCTOOLS-1004241126

 37 36  0  0  0  0  0  0  0  0999 V2000
    5.1821    2.2118    0.0415 N   0  0  0  1  0  0  0  0  0  0  0  0
    4.9386    0.7690    0.3464 C   0  0  0  1  0  0  0  0  0  0  0  0
    5.9461   -0.1420   -0.3114 C   0  0  0  1  0  0  0  0  0  0  0  0
    6.6236    0.1957   -1.2578 O   0  0  0  1  0  0  0  0  0  0  0  0
    6.0006   -1.3222    0.2529 O   0  0  0  1  0  0  0  0  0  0  0  0
    3.5682    0.4503   -0.0764 C   0  0  0  1  0  0  0  0  0  0  0  0
    3.1328   -1.0062   -0.2068 C   0  0  0  1  0  0  0  0  0  0  0  0
    1.7617   -1.1021   -0.8471 C   0  0  0  1  0  0  0  0  0  0  0  0
    0.7689   -1.4068   -0.1874 O   0  0  0  1  0  0  0  0  0  0  0  0
    1.7119   -0.8352   -2.1618 N   0  0  0  1  0  0  0  0  0  0  0  0
    0.4544   -0.7299   -2.8866 C   0  0  0  1  0  0  0  0  0  0  0  0
    0.3848   -1.8435   -3.9223 C   0  0  0  1  0  0  0  0  0  0  0  0
    1.2888   -2.6539   -4.0424 O   0  0  0  1  0  0  0  0  0  0  0  0
    0.2480    0.6241   -3.5323 C   0  0  0  1  0  0  0  0  0  0  0  0
    0.3597    1.9968   -2.3601 S   0  0  0  1  0  0  0  0  0  0  0  0
   -0.7236   -1.8675   -4.6793 N   0  0  0  1  0  0  0  0  0  0  0  0
   -0.8854   -2.7916   -5.7918 C   0  0  0  1  0  0  0  0  0  0  0  0
   -2.1142   -2.4992   -6.6167 C   0  0  0  1  0  0  0  0  0  0  0  0
   -2.8713   -1.5752   -6.4125 O   0  0  0  1  0  0  0  0  0  0  0  0
   -2.2868   -3.3555   -7.5920 O   0  0  0  1  0  0  0  0  0  0  0  0
    4.8694    2.7616    0.7901 H   0  0  0  1  0  0  0  0  0  0  0  0
    4.6951    2.4603   -0.7718 H   0  0  0  1  0  0  0  0  0  0  0  0
    4.9994    0.6300    1.4055 H   0  0  0  1  0  0  0  0  0  0  0  0
    5.1627   -1.5115    0.6815 H   0  0  0  1  0  0  0  0  0  0  0  0
    3.4273    0.9025   -1.0358 H   0  0  0  1  0  0  0  0  0  0  0  0
    2.9112    0.9073    0.6338 H   0  0  0  1  0  0  0  0  0  0  0  0
    3.0976   -1.4503    0.7660 H   0  0  0  1  0  0  0  0  0  0  0  0
    3.8408   -1.5310   -0.8136 H   0  0  0  1  0  0  0  0  0  0  0  0
    2.5517   -0.7068   -2.6504 H   0  0  0  1  0  0  0  0  0  0  0  0
   -0.3479   -0.8815   -2.1950 H   0  0  0  1  0  0  0  0  0  0  0  0
   -0.7217    0.6410   -3.9842 H   0  0  0  1  0  0  0  0  0  0  0  0
    0.9956    0.7588   -4.2859 H   0  0  0  1  0  0  0  0  0  0  0  0
    1.2355    2.8923   -2.8072 H   0  0  0  1  0  0  0  0  0  0  0  0
   -1.4491   -1.2409   -4.4756 H   0  0  0  1  0  0  0  0  0  0  0  0
   -0.9628   -3.7854   -5.4028 H   0  0  0  1  0  0  0  0  0  0  0  0
   -0.0245   -2.7212   -6.4233 H   0  0  0  1  0  0  0  0  0  0  0  0
   -1.4373   -3.5688   -7.9852 H   0  0  0  1  0  0  0  0  0  0  0  0
  1  2  1  0  0  0  0
  1 21  1  0  0  0  0
  1 22  1  0  0  0  0
  2  3  1  0  0  0  0
  2  6  1  0  0  0  0
  2 23  1  0  0  0  0
  3  4  2  0  0  0  0
  3  5  1  0  0  0  0
  5 24  1  0  0  0  0
  6  7  1  0  0  0  0
  6 25  1  0  0  0  0
  6 26  1  0  0  0  0
  7  8  1  0  0  0  0
  7 27  1  0  0  0  0
  7 28  1  0  0  0  0
  8  9  2  0  0  0  0
  8 10  1  0  0  0  0
 10 11  1  0  0  0  0
 10 29  1  0  0  0  0
 11 12  1  0  0  0  0
 11 14  1  0  0  0  0
 11 30  1  0  0  0  0
 12 13  2  0  0  0  0
 12 16  1  0  0  0  0
 14 15  1  0  0  0  0
 14 31  1  0  0  0  0
 14 32  1  0  0  0  0
 15 33  1  0  0  0  0
 16 17  1  0  0  0  0
 16 34  1  0  0  0  0
 17 18  1  0  0  0  0
 17 35  1  0  0  0  0
 17 36  1  0  0  0  0
 18 19  2  0  0  0  0
 18 20  1  0  0  0  0
 20 37  1  0  0  0  0
M  END
> <ConfClashScore>
0 

> <ConfOneFourInteractionScore>
-0.962043 

> <ConfScore>
0.109301 

> <ConfScorePBest>
0.0205487 

> <ConfTolerance>
1.01105 

$$$$
GSH
  CCTOOLS-1004241126

 37 36  0  0  0  0  0  0  0  0999 V2000
    4.8960    2.1830   -0.1836 N   0  0  0  1  0  0  0  0  0  0  0  0
    4.8119    0.7768    0.2999 C   0  0  0  1  0  0  0  0  0  0  0  0
    6.1305    0.0871    0.0924 C   0  0  0  1  0  0  0  0  0  0  0  0
    7.0746    0.5777   -0.4818 O   0  0  0  1  0  0  0  0  0  0  0  0
    6.1590   -1.1245    0.6052 O   0  0  0  1  0  0  0  0  0  0  0  0
    3.6676    0.0467   -0.3986 C   0  0  0  1  0  0  0  0  0  0  0  0
    2.3628    0.8264   -0.3931 C   0  0  0  1  0  0  0  0  0  0  0  0
    1.3022    0.3254   -1.3540 C   0  0  0  1  0  0  0  0  0  0  0  0
    0.7235   -0.7412   -1.1649 O   0  0  0  1  0  0  0  0  0  0  0  0
    1.0474    1.1187   -2.4066 N   0  0  0  1  0  0  0  0  0  0  0  0
    0.2748    0.6540   -3.5755 C   0  0  0  1  0  0  0  0  0  0  0  0
    1.2087    0.3744   -4.7461 C   0  0  0  1  0  0  0  0  0  0  0  0
    1.6244    1.2872   -5.4663 O   0  0  0  1  0  0  0  0  0  0  0  0
   -0.8420    1.6320   -3.8738 C   0  0  0  1  0  0  0  0  0  0  0  0
   -0.2509    3.2079   -4.5358 S   0  0  0  1  0  0  0  0  0  0  0  0
    1.5385   -0.9068   -4.9323 N   0  0  0  1  0  0  0  0  0  0  0  0
    2.4554   -1.4527   -5.9367 C   0  0  0  1  0  0  0  0  0  0  0  0
    2.5927   -2.9458   -5.7681 C   0  0  0  1  0  0  0  0  0  0  0  0
    1.9523   -3.5948   -4.9738 O   0  0  0  1  0  0  0  0  0  0  0  0
    3.4694   -3.5433   -6.5472 O   0  0  0  1  0  0  0  0  0  0  0  0
    5.8105    2.5151   -0.0663 H   0  0  0  1  0  0  0  0  0  0  0  0
    4.2771    2.7425    0.3304 H   0  0  0  1  0  0  0  0  0  0  0  0
    4.6055    0.7899    1.3498 H   0  0  0  1  0  0  0  0  0  0  0  0
    6.0932   -1.0694    1.5614 H   0  0  0  1  0  0  0  0  0  0  0  0
    3.5070   -0.8869    0.0989 H   0  0  0  1  0  0  0  0  0  0  0  0
    3.9505   -0.1340   -1.4146 H   0  0  0  1  0  0  0  0  0  0  0  0
    2.5843    1.8422   -0.6462 H   0  0  0  1  0  0  0  0  0  0  0  0
    1.9578    0.7851    0.5964 H   0  0  0  1  0  0  0  0  0  0  0  0
    1.3861    2.0383   -2.3987 H   0  0  0  1  0  0  0  0  0  0  0  0
   -0.1851   -0.2754   -3.3115 H   0  0  0  1  0  0  0  0  0  0  0  0
   -1.3773    1.8234   -2.9673 H   0  0  0  1  0  0  0  0  0  0  0  0
   -1.5006    1.1878   -4.5905 H   0  0  0  1  0  0  0  0  0  0  0  0
   -1.1728    4.1461   -4.3385 H   0  0  0  1  0  0  0  0  0  0  0  0
    1.1197   -1.5553   -4.3285 H   0  0  0  1  0  0  0  0  0  0  0  0
    3.4160   -0.9954   -5.8224 H   0  0  0  1  0  0  0  0  0  0  0  0
    2.0735   -1.2421   -6.9138 H   0  0  0  1  0  0  0  0  0  0  0  0
    4.3164   -3.0967   -6.4781 H   0  0  0  1  0  0  0  0  0  0  0  0
  1  2  1  0  0  0  0
  1 21  1  0  0  0  0
  1 22  1  0  0  0  0
  2  3  1  0  0  0  0
  2  6  1  0  0  0  0
  2 23  1  0  0  0  0
  3  4  2  0  0  0  0
  3  5  1  0  0  0  0
  5 24  1  0  0  0  0
  6  7  1  0  0  0  0
  6 25  1  0  0  0  0
  6 26  1  0  0  0  0
  7  8  1  0  0  0  0
  7 27  1  0  0  0  0
  7 28  1  0  0  0  0
  8  9  2  0  0  0  0
  8 10  1  0  0  0  0
 10 11  1  0  0  0  0
 10 29  1  0  0  0  0
 11 12  1  0  0  0  0
 11 14  1  0  0  0  0
 11 30  1  0  0  0  0
 12 13  2  0  0  0  0
 12 16  1  0  0  0  0
 14 15  1  0  0  0  0
 14 31  1  0  0  0  0
 14 32  1  0  0  0  0
 15 33  1  0  0  0  0
 16 17  1  0  0  0  0
 16 34  1  0  0  0  0
 17 18  1  0  0  0  0
 17 35  1  0  0  0  0
 17 36  1  0  0  0  0
 18 19  2  0  0  0  0
 18 20  1  0  0  0  0
 20 37  1  0  0  0  0
M  END
> <ConfClashScore>
0 

> <ConfOneFourInteractionScore>
-0.96895 

> <ConfScore>
0.110996 

> <ConfScorePBest>
0.0201829 

> <ConfTolerance>
1.10084 

$$$$
GSH
  CCTOOLS-1004241126

 37 36  0  0  0  0  0  0  0  0999 V2000
    4.7610    2.2644    0.1999 N   0  0  0  1  0  0  0  0  0  0  0  0
    4.7793    0.7855    0.3752 C   0  0  0  1  0  0  0  0  0  0  0  0
    6.0283    0.2344   -0.2731 C   0  0  0  1  0  0  0  0  0  0  0  0
    6.0032   -0.5889   -1.1620 O   0  0  0  1  0  0  0  0  0  0  0  0
    7.1236    0.7440    0.2318 O   0  0  0  1  0  0  0  0  0  0  0  0
    3.4893    0.1469   -0.1331 C   0  0  0  1  0  0  0  0  0  0  0  0
    3.2735   -1.2702    0.3817 C   0  0  0  1  0  0  0  0  0  0  0  0
    2.3717   -2.0882   -0.5035 C   0  0  0  1  0  0  0  0  0  0  0  0
    2.1262   -1.7323   -1.6553 O   0  0  0  1  0  0  0  0  0  0  0  0
    1.8450   -3.2151    0.0013 N   0  0  0  1  0  0  0  0  0  0  0  0
    1.1307   -4.1402   -0.8659 C   0  0  0  1  0  0  0  0  0  0  0  0
   -0.1311   -3.5396   -1.4433 C   0  0  0  1  0  0  0  0  0  0  0  0
   -0.5617   -3.8919   -2.5406 O   0  0  0  1  0  0  0  0  0  0  0  0
    0.8348   -5.4249   -0.1212 C   0  0  0  1  0  0  0  0  0  0  0  0
    2.3253   -6.2888    0.4293 S   0  0  0  1  0  0  0  0  0  0  0  0
   -0.7353   -2.6114   -0.6846 N   0  0  0  1  0  0  0  0  0  0  0  0
   -1.9589   -1.9099   -1.0432 C   0  0  0  1  0  0  0  0  0  0  0  0
   -1.8994   -1.3057   -2.4239 C   0  0  0  1  0  0  0  0  0  0  0  0
   -0.8887   -1.2644   -3.0877 O   0  0  0  1  0  0  0  0  0  0  0  0
   -3.0400   -0.7637   -2.7756 O   0  0  0  1  0  0  0  0  0  0  0  0
    4.7200    2.4801   -0.7552 H   0  0  0  1  0  0  0  0  0  0  0  0
    5.5750    2.6491    0.5869 H   0  0  0  1  0  0  0  0  0  0  0  0
    4.8461    0.5806    1.4233 H   0  0  0  1  0  0  0  0  0  0  0  0
    6.8968    1.3663    0.9268 H   0  0  0  1  0  0  0  0  0  0  0  0
    3.5234    0.1179   -1.2021 H   0  0  0  1  0  0  0  0  0  0  0  0
    2.6645    0.7515    0.1817 H   0  0  0  1  0  0  0  0  0  0  0  0
    2.8355   -1.2155    1.3565 H   0  0  0  1  0  0  0  0  0  0  0  0
    4.2236   -1.7583    0.4440 H   0  0  0  1  0  0  0  0  0  0  0  0
    1.9417   -3.4153    0.9557 H   0  0  0  1  0  0  0  0  0  0  0  0
    1.7711   -4.3900   -1.6859 H   0  0  0  1  0  0  0  0  0  0  0  0
    0.2851   -6.0748   -0.7696 H   0  0  0  1  0  0  0  0  0  0  0  0
    0.2407   -5.1910    0.7374 H   0  0  0  1  0  0  0  0  0  0  0  0
    3.1600   -6.4316   -0.5963 H   0  0  0  1  0  0  0  0  0  0  0  0
   -0.3212   -2.3895    0.1754 H   0  0  0  1  0  0  0  0  0  0  0  0
   -2.1247   -1.1265   -0.3335 H   0  0  0  1  0  0  0  0  0  0  0  0
   -2.7736   -2.6026   -1.0074 H   0  0  0  1  0  0  0  0  0  0  0  0
   -3.7568   -1.1862   -2.2966 H   0  0  0  1  0  0  0  0  0  0  0  0
  1  2  1  0  0  0  0
  1 21  1  0  0  0  0
  1 22  1  0  0  0  0
  2  3  1  0  0  0  0
  2  6  1  0  0  0  0
  2 23  1  0  0  0  0
  3  4  2  0  0  0  0
  3  5  1  0  0  0  0
  5 24  1  0  0  0  0
  6  7  1  0  0  0  0
  6 25  1  0  0  0  0
  6 26  1  0  0  0  0
  7  8  1  0  0  0  0
  7 27  1  0  0  0  0
  7 28  1  0  0  0  0
  8  9  2  0  0  0  0
  8 10  1  0  0  0  0
 10 11  1  0  0  0  0
 10 29  1  0  0  0  0
 11 12  1  0  0  0  0
 11 14  1  0  0  0  0
 11 30  1  0  0  0  0
 12 13  2  0  0  0  0
 12 16  1  0  0  0  0
 14 15  1  0  0  0  0
 14 31  1  0  0  0  0
 14 32  1  0  0  0  0
 15 33  1  0  0  0  0
 16 17  1  0  0  0  0
 16 34  1  0  0  0  0
 17 18  1  0  0  0  0
 17 35  1  0  0  0  0
 17 36  1  0  0  0  0
 18 19  2  0  0  0  0
 18 20  1  0  0  0  0
 20 37  1  0  0  0  0
M  END
> <ConfClashScore>
0 

> <ConfOneFourInteractionScore>
-0.950104 

> <ConfScore>
0.116597 

> <ConfScorePBest>
0.0198171 

> <ConfTolerance>
1.24446 

$$$$
GSH
  CCTOOLS-1004241126

 37 36  0  0  0  0  0  0  0  0999 V2000
    4.7200    2.2431    0.0533 N   0  0  0  1  0  0  0  0  0  0  0  0
    4.7614    0.7841    0.3442 C   0  0  0  1  0  0  0  0  0  0  0  0
    6.1003    0.2384   -0.0955 C   0  0  0  1  0  0  0  0  0  0  0  0
    6.4228    0.1371   -1.2592 O   0  0  0  1  0  0  0  0  0  0  0  0
    6.8588   -0.1067    0.9144 O   0  0  0  1  0  0  0  0  0  0  0  0
    3.5733    0.0605   -0.2697 C   0  0  0  1  0  0  0  0  0  0  0  0
    3.6079   -1.4439   -0.0559 C   0  0  0  1  0  0  0  0  0  0  0  0
    2.2925   -2.0678   -0.4386 C   0  0  0  1  0  0  0  0  0  0  0  0
    1.2099   -1.5523   -0.2327 O   0  0  0  1  0  0  0  0  0  0  0  0
    2.3638   -3.2595   -1.0384 N   0  0  0  1  0  0  0  0  0  0  0  0
    1.1695   -3.9999   -1.4525 C   0  0  0  1  0  0  0  0  0  0  0  0
    1.2301   -5.4185   -0.9331 C   0  0  0  1  0  0  0  0  0  0  0  0
    2.2008   -6.1363   -1.1701 O   0  0  0  1  0  0  0  0  0  0  0  0
    1.0237   -3.9909   -2.9574 C   0  0  0  1  0  0  0  0  0  0  0  0
    0.5076   -2.4103   -3.6689 S   0  0  0  1  0  0  0  0  0  0  0  0
    0.1949   -5.8696   -0.2072 N   0  0  0  1  0  0  0  0  0  0  0  0
    0.2048   -7.2283    0.3139 C   0  0  0  1  0  0  0  0  0  0  0  0
    1.2811   -7.4440    1.3738 C   0  0  0  1  0  0  0  0  0  0  0  0
    1.4428   -6.6008    2.2711 O   0  0  0  1  0  0  0  0  0  0  0  0
    1.9143   -8.5543    1.3079 O   0  0  0  1  0  0  0  0  0  0  0  0
    5.1836    2.4216   -0.7915 H   0  0  0  1  0  0  0  0  0  0  0  0
    5.1617    2.7332    0.7779 H   0  0  0  1  0  0  0  0  0  0  0  0
    4.6986    0.6601    1.4052 H   0  0  0  1  0  0  0  0  0  0  0  0
    6.3092   -0.4277    1.6330 H   0  0  0  1  0  0  0  0  0  0  0  0
    3.5653    0.2536   -1.3221 H   0  0  0  1  0  0  0  0  0  0  0  0
    2.6772    0.4453    0.1708 H   0  0  0  1  0  0  0  0  0  0  0  0
    3.8055   -1.6472    0.9759 H   0  0  0  1  0  0  0  0  0  0  0  0
    4.3849   -1.8661   -0.6583 H   0  0  0  1  0  0  0  0  0  0  0  0
    3.2458   -3.6520   -1.2071 H   0  0  0  1  0  0  0  0  0  0  0  0
    0.3058   -3.5280   -1.0326 H   0  0  0  1  0  0  0  0  0  0  0  0
    0.2952   -4.7279   -3.2241 H   0  0  0  1  0  0  0  0  0  0  0  0
    1.9695   -4.2530   -3.3835 H   0  0  0  1  0  0  0  0  0  0  0  0
    1.4784   -1.5148   -3.5123 H   0  0  0  1  0  0  0  0  0  0  0  0
   -0.5691   -5.2826   -0.0278 H   0  0  0  1  0  0  0  0  0  0  0  0
    0.3819   -7.9044   -0.4963 H   0  0  0  1  0  0  0  0  0  0  0  0
   -0.7506   -7.4350    0.7492 H   0  0  0  1  0  0  0  0  0  0  0  0
    2.1413   -8.7400    0.3938 H   0  0  0  1  0  0  0  0  0  0  0  0
  1  2  1  0  0  0  0
  1 21  1  0  0  0  0
  1 22  1  0  0  0  0
  2  3  1  0  0  0  0
  2  6  1  0  0  0  0
  2 23  1  0  0  0  0
  3  4  2  0  0  0  0
  3  5  1  0  0  0  0
  5 24  1  0  0  0  0
  6  7  1  0  0  0  0
  6 25  1  0  0  0  0
  6 26  1  0  0  0  0
  7  8  1  0  0  0  0
  7 27  1  0  0  0  0
  7 28  1  0  0  0  0
  8  9  2  0  0  0  0
  8 10  1  0  0  0  0
 10 11  1  0  0  0  0
 10 29  1  0  0  0  0
 11 12  1  0  0  0  0
 11 14  1  0  0  0  0
 11 30  1  0  0  0  0
 12 13  2  0  0  0  0
 12 16  1  0  0  0  0
 14 15  1  0  0  0  0
 14 31  1  0  0  0  0
 14 32  1  0  0  0  0
 15 33  1  0  0  0  0
 16 17  1  0  0  0  0
 16 34  1  0  0  0  0
 17 18  1  0  0  0  0
 17 35  1  0  0  0  0
 17 36  1  0  0  0  0
 18 19  2  0  0  0  0
 18 20  1  0  0  0  0
 20 37  1  0  0  0  0
M  END
> <ConfClashScore>
0 

> <ConfOneFourInteractionScore>
-0.956835 

> <ConfScore>
0.116758 

> <ConfScorePBest>
0.0194513 

> <ConfTolerance>
1.08683 

$$$$
GSH
  CCTOOLS-1004241126

 37 36  0  0  0  0  0  0  0  0999 V2000
    4.8889    2.1898   -0.1745 N   0  0  0  1  0  0  0  0  0  0  0  0
    4.8218    0.8038    0.2919 C   0  0  0  1  0  0  0  0  0  0  0  0
    6.1028    0.0286    0.0865 C   0  0  0  1  0  0  0  0  0  0  0  0
    6.3097   -1.0523    0.5939 O   0  0  0  1  0  0  0  0  0  0  0  0
    6.9494    0.6537   -0.6925 O   0  0  0  1  0  0  0  0  0  0  0  0
    3.7106    0.0437   -0.4064 C   0  0  0  1  0  0  0  0  0  0  0  0
    3.9754   -0.1873   -1.8852 C   0  0  0  1  0  0  0  0  0  0  0  0
    2.7944   -0.7233   -2.6841 C   0  0  0  1  0  0  0  0  0  0  0  0
    2.5799   -1.9202   -2.7832 O   0  0  0  1  0  0  0  0  0  0  0  0
    2.0433    0.2367   -3.2466 N   0  0  0  1  0  0  0  0  0  0  0  0
    0.9188   -0.0024   -4.1553 C   0  0  0  1  0  0  0  0  0  0  0  0
    1.4067    0.1027   -5.5972 C   0  0  0  1  0  0  0  0  0  0  0  0
    2.3518    0.8142   -5.8954 O   0  0  0  1  0  0  0  0  0  0  0  0
   -0.2881    0.8577   -3.8414 C   0  0  0  1  0  0  0  0  0  0  0  0
   -0.6567    0.7214   -2.0760 S   0  0  0  1  0  0  0  0  0  0  0  0
    0.7322   -0.6315   -6.4961 N   0  0  0  1  0  0  0  0  0  0  0  0
    1.0578   -0.6154   -7.9144 C   0  0  0  1  0  0  0  0  0  0  0  0
    1.8893   -1.8021   -8.3335 C   0  0  0  1  0  0  0  0  0  0  0  0
    2.6969   -2.3341   -7.6032 O   0  0  0  1  0  0  0  0  0  0  0  0
    1.6388   -2.1833   -9.5608 O   0  0  0  1  0  0  0  0  0  0  0  0
    5.8010    2.5296   -0.0602 H   0  0  0  1  0  0  0  0  0  0  0  0
    4.2678    2.7400    0.3468 H   0  0  0  1  0  0  0  0  0  0  0  0
    4.6061    0.8054    1.3399 H   0  0  0  1  0  0  0  0  0  0  0  0
    6.4666    1.1506   -1.3570 H   0  0  0  1  0  0  0  0  0  0  0  0
    2.8034    0.6023   -0.3074 H   0  0  0  1  0  0  0  0  0  0  0  0
    3.5983   -0.9074    0.0708 H   0  0  0  1  0  0  0  0  0  0  0  0
    4.7780   -0.8897   -1.9710 H   0  0  0  1  0  0  0  0  0  0  0  0
    4.2700    0.7461   -2.3175 H   0  0  0  1  0  0  0  0  0  0  0  0
    2.2636    1.1675   -3.0335 H   0  0  0  1  0  0  0  0  0  0  0  0
    0.6103   -1.0172   -4.0139 H   0  0  0  1  0  0  0  0  0  0  0  0
   -1.1283    0.5201   -4.4113 H   0  0  0  1  0  0  0  0  0  0  0  0
   -0.0765    1.8775   -4.0869 H   0  0  0  1  0  0  0  0  0  0  0  0
   -0.9408   -0.5433   -1.7781 H   0  0  0  1  0  0  0  0  0  0  0  0
   -0.0052   -1.1979   -6.1865 H   0  0  0  1  0  0  0  0  0  0  0  0
    1.6043    0.2788   -8.1301 H   0  0  0  1  0  0  0  0  0  0  0  0
    0.1464   -0.6210   -8.4750 H   0  0  0  1  0  0  0  0  0  0  0  0
    0.7194   -2.4499   -9.6322 H   0  0  0  1  0  0  0  0  0  0  0  0
  1  2  1  0  0  0  0
  1 21  1  0  0  0  0
  1 22  1  0  0  0  0
  2  3  1  0  0  0  0
  2  6  1  0  0  0  0
  2 23  1  0  0  0  0
  3  4  2  0  0  0  0
  3  5  1  0  0  0  0
  5 24  1  0  0  0  0
  6  7  1  0  0  0  0
  6 25  1  0  0  0  0
  6 26  1  0  0  0  0
  7  8  1  0  0  0  0
  7 27  1  0  0  0  0
  7 28  1  0  0  0  0
  8  9  2  0  0  0  0
  8 10  1  0  0  0  0
 10 11  1  0  0  0  0
 10 29  1  0  0  0  0
 11 12  1  0  0  0  0
 11 14  1  0  0  0  0
 11 30  1  0  0  0  0
 12 13  2  0  0  0  0
 12 16  1  0  0  0  0
 14 15  1  0  0  0  0
 14 31  1  0  0  0  0
 14 32  1  0  0  0  0
 15 33  1  0  0  0  0
 16 17  1  0  0  0  0
 16 34  1  0  0  0  0
 17 18  1  0  0  0  0
 17 35  1  0  0  0  0
 17 36  1  0  0  0  0
 18 19  2  0  0  0  0
 18 20  1  0  0  0  0
 20 37  1  0  0  0  0
M  END
> <ConfClashScore>
0 

> <ConfOneFourInteractionScore>
-0.971687 

> <ConfScore>
0.117719 

> <ConfScorePBest>
0.0190855 

> <ConfTolerance>
1.19702 

$$$$
GSH
  CCTOOLS-1004241126

 37 36  0  0  0  0  0  0  0  0999 V2000
    5.1598    2.2286    0.2289 N   0  0  0  1  0  0  0  0  0  0  0  0
    4.8839    0.7745    0.3943 C   0  0  0  1  0  0  0  0  0  0  0  0
    5.8704    0.0536   -0.4951 C   0  0  0  1  0  0  0  0  0  0  0  0
    6.1121   -1.1264   -0.3910 O   0  0  0  1  0  0  0  0  0  0  0  0
    6.4265    0.8503   -1.3827 O   0  0  0  1  0  0  0  0  0  0  0  0
    3.4449    0.4229    0.1084 C   0  0  0  1  0  0  0  0  0  0  0  0
    2.4158    1.1096    0.9915 C   0  0  0  1  0  0  0  0  0  0  0  0
    1.0077    0.9442    0.4134 C   0  0  0  1  0  0  0  0  0  0  0  0
    0.8842    0.2791   -0.6117 O   0  0  0  1  0  0  0  0  0  0  0  0
    0.0188    1.5450    1.0813 N   0  0  0  1  0  0  0  0  0  0  0  0
   -1.3603    1.5006    0.6305 C   0  0  0  1  0  0  0  0  0  0  0  0
   -1.9955    2.8806    0.7015 C   0  0  0  1  0  0  0  0  0  0  0  0
   -2.7710    3.1722    1.6110 O   0  0  0  1  0  0  0  0  0  0  0  0
   -2.1569    0.5489    1.4941 C   0  0  0  1  0  0  0  0  0  0  0  0
   -1.7492   -1.2008    1.2854 S   0  0  0  1  0  0  0  0  0  0  0  0
   -1.6851    3.7679   -0.2559 N   0  0  0  1  0  0  0  0  0  0  0  0
   -2.3535    5.0557   -0.3687 C   0  0  0  1  0  0  0  0  0  0  0  0
   -3.7246    5.0114   -1.0438 C   0  0  0  1  0  0  0  0  0  0  0  0
   -3.9493    4.0994   -1.8562 O   0  0  0  1  0  0  0  0  0  0  0  0
   -4.5378    5.9199   -0.7193 O   0  0  0  1  0  0  0  0  0  0  0  0
    4.3673    2.7435    0.4883 H   0  0  0  1  0  0  0  0  0  0  0  0
    5.3777    2.4150   -0.7082 H   0  0  0  1  0  0  0  0  0  0  0  0
    5.0951    0.5029    1.4075 H   0  0  0  1  0  0  0  0  0  0  0  0
    7.0160    0.3421   -1.9446 H   0  0  0  1  0  0  0  0  0  0  0  0
    3.3330   -0.6340    0.2325 H   0  0  0  1  0  0  0  0  0  0  0  0
    3.2366    0.6873   -0.9072 H   0  0  0  1  0  0  0  0  0  0  0  0
    2.6484    2.1520    1.0558 H   0  0  0  1  0  0  0  0  0  0  0  0
    2.4469    0.6756    1.9690 H   0  0  0  1  0  0  0  0  0  0  0  0
    0.2319    2.0327    1.9043 H   0  0  0  1  0  0  0  0  0  0  0  0
   -1.3979    1.1558   -0.3817 H   0  0  0  1  0  0  0  0  0  0  0  0
   -3.1931    0.6778    1.2605 H   0  0  0  1  0  0  0  0  0  0  0  0
   -1.9865    0.8089    2.5180 H   0  0  0  1  0  0  0  0  0  0  0  0
   -2.6303   -1.9441    1.9487 H   0  0  0  1  0  0  0  0  0  0  0  0
   -0.9837    3.5409   -0.9017 H   0  0  0  1  0  0  0  0  0  0  0  0
   -1.7241    5.7083   -0.9368 H   0  0  0  1  0  0  0  0  0  0  0  0
   -2.4811    5.4514    0.6173 H   0  0  0  1  0  0  0  0  0  0  0  0
   -4.5504    6.5969   -1.3999 H   0  0  0  1  0  0  0  0  0  0  0  0
  1  2  1  0  0  0  0
  1 21  1  0  0  0  0
  1 22  1  0  0  0  0
  2  3  1  0  0  0  0
  2  6  1  0  0  0  0
  2 23  1  0  0  0  0
  3  4  2  0  0  0  0
  3  5  1  0  0  0  0
  5 24  1  0  0  0  0
  6  7  1  0  0  0  0
  6 25  1  0  0  0  0
  6 26  1  0  0  0  0
  7  8  1  0  0  0  0
  7 27  1  0  0  0  0
  7 28  1  0  0  0  0
  8  9  2  0  0  0  0
  8 10  1  0  0  0  0
 10 11  1  0  0  0  0
 10 29  1  0  0  0  0
 11 12  1  0  0  0  0
 11 14  1  0  0  0  0
 11 30  1  0  0  0  0
 12 13  2  0  0  0  0
 12 16  1  0  0  0  0
 14 15  1  0  0  0  0
 14 31  1  0  0  0  0
 14 32  1  0  0  0  0
 15 33  1  0  0  0  0
 16 17  1  0  0  0  0
 16 34  1  0  0  0  0
 17 18  1  0  0  0  0
 17 35  1  0  0  0  0
 17 36  1  0  0  0  0
 18 19  2  0  0  0  0
 18 20  1  0  0  0  0
 20 37  1  0  0  0  0
M  END
> <ConfClashScore>
0 

> <ConfOneFourInteractionScore>
-0.968011 

> <ConfScore>
0.11814 

> <ConfScorePBest>
0.0187197 

> <ConfTolerance>
1.20147 

$$$$
GSH
  CCTOOLS-1004241126

 37 36  0  0  0  0  0  0  0  0999 V2000
    5.1817    2.2146    0.0147 N   0  0  0  1  0  0  0  0  0  0  0  0
    4.9362    0.7752    0.3077 C   0  0  0  1  0  0  0  0  0  0  0  0
    5.9893   -0.1524   -0.2532 C   0  0  0  1  0  0  0  0  0  0  0  0
    5.9001   -0.6701   -1.3452 O   0  0  0  1  0  0  0  0  0  0  0  0
    6.9940   -0.3275    0.5679 O   0  0  0  1  0  0  0  0  0  0  0  0
    3.5252    0.3870   -0.0901 C   0  0  0  1  0  0  0  0  0  0  0  0
    3.1202   -0.9946    0.3973 C   0  0  0  1  0  0  0  0  0  0  0  0
    1.6655   -1.3197    0.1194 C   0  0  0  1  0  0  0  0  0  0  0  0
    1.0827   -0.8516   -0.8550 O   0  0  0  1  0  0  0  0  0  0  0  0
    1.0770   -2.1358    0.9944 N   0  0  0  1  0  0  0  0  0  0  0  0
   -0.3000   -2.5556    0.7893 C   0  0  0  1  0  0  0  0  0  0  0  0
   -1.2518   -1.4041    1.0215 C   0  0  0  1  0  0  0  0  0  0  0  0
   -2.3496   -1.3712    0.4670 O   0  0  0  1  0  0  0  0  0  0  0  0
   -0.6468   -3.6796    1.7428 C   0  0  0  1  0  0  0  0  0  0  0  0
   -2.0166   -4.7085    1.1630 S   0  0  0  1  0  0  0  0  0  0  0  0
   -0.8651   -0.4259    1.8453 N   0  0  0  1  0  0  0  0  0  0  0  0
   -1.6500    0.7844    2.0374 C   0  0  0  1  0  0  0  0  0  0  0  0
   -2.7979    0.5914    3.0286 C   0  0  0  1  0  0  0  0  0  0  0  0
   -3.7796    1.3526    2.9471 O   0  0  0  1  0  0  0  0  0  0  0  0
   -2.6621   -0.3357    3.8642 O   0  0  0  1  0  0  0  0  0  0  0  0
    4.9680    2.7507    0.8067 H   0  0  0  1  0  0  0  0  0  0  0  0
    4.6148    2.4968   -0.7332 H   0  0  0  1  0  0  0  0  0  0  0  0
    4.9838    0.6690    1.3713 H   0  0  0  1  0  0  0  0  0  0  0  0
    6.7230   -0.0971    1.4596 H   0  0  0  1  0  0  0  0  0  0  0  0
    3.4569    0.4036   -1.1577 H   0  0  0  1  0  0  0  0  0  0  0  0
    2.8469    1.1045    0.3224 H   0  0  0  1  0  0  0  0  0  0  0  0
    3.2848   -1.0450    1.4534 H   0  0  0  1  0  0  0  0  0  0  0  0
    3.7317   -1.7220   -0.0945 H   0  0  0  1  0  0  0  0  0  0  0  0
    1.5736   -2.4534    1.7773 H   0  0  0  1  0  0  0  0  0  0  0  0
   -0.4242   -2.9076   -0.2135 H   0  0  0  1  0  0  0  0  0  0  0  0
   -0.9172   -3.2537    2.6863 H   0  0  0  1  0  0  0  0  0  0  0  0
    0.2163   -4.3001    1.8651 H   0  0  0  1  0  0  0  0  0  0  0  0
   -3.0827   -3.9447    0.9417 H   0  0  0  1  0  0  0  0  0  0  0  0
   -0.0236   -0.5270    2.3374 H   0  0  0  1  0  0  0  0  0  0  0  0
   -2.0586    1.0807    1.0939 H   0  0  0  1  0  0  0  0  0  0  0  0
   -1.0058    1.5554    2.4055 H   0  0  0  1  0  0  0  0  0  0  0  0
   -2.3843    0.0307    4.7070 H   0  0  0  1  0  0  0  0  0  0  0  0
  1  2  1  0  0  0  0
  1 21  1  0  0  0  0
  1 22  1  0  0  0  0
  2  3  1  0  0  0  0
  2  6  1  0  0  0  0
  2 23  1  0  0  0  0
  3  4  2  0  0  0  0
  3  5  1  0  0  0  0
  5 24  1  0  0  0  0
  6  7  1  0  0  0  0
  6 25  1  0  0  0  0
  6 26  1  0  0  0  0
  7  8  1  0  0  0  0
  7 27  1  0  0  0  0
  7 28  1  0  0  0  0
  8  9  2  0  0  0  0
  8 10  1  0  0  0  0
 10 11  1  0  0  0  0
 10 29  1  0  0  0  0
 11 12  1  0  0  0  0
 11 14  1  0  0  0  0
 11 30  1  0  0  0  0
 12 13  2  0  0  0  0
 12 16  1  0  0  0  0
 14 15  1  0  0  0  0
 14 31  1  0  0  0  0
 14 32  1  0  0  0  0
 15 33  1  0  0  0  0
 16 17  1  0  0  0  0
 16 34  1  0  0  0  0
 17 18  1  0  0  0  0
 17 35  1  0  0  0  0
 17 36  1  0  0  0  0
 18 19  2  0  0  0  0
 18 20  1  0  0  0  0
 20 37  1  0  0  0  0
M  END
> <ConfClashScore>
0 

> <ConfOneFourInteractionScore>
-0.952032 

> <ConfScore>
0.130615 

> <ConfScorePBest>
0.0183539 

> <ConfTolerance>
1.24938 

$$$$
GSH
  CCTOOLS-1004241126

 37 36  0  0  0  0  0  0  0  0999 V2000
    5.1923    2.1988    0.0170 N   0  0  0  1  0  0  0  0  0  0  0  0
    4.9100    0.7711    0.3332 C   0  0  0  1  0  0  0  0  0  0  0  0
    6.0003   -0.0913   -0.2828 C   0  0  0  1  0  0  0  0  0  0  0  0
    6.6861    0.2747   -1.2089 O   0  0  0  1  0  0  0  0  0  0  0  0
    6.1074   -1.2651    0.3023 O   0  0  0  1  0  0  0  0  0  0  0  0
    3.5039    0.3753   -0.0889 C   0  0  0  1  0  0  0  0  0  0  0  0
    3.3957    0.0157   -1.5618 C   0  0  0  1  0  0  0  0  0  0  0  0
    3.7952    1.1530   -2.4818 C   0  0  0  1  0  0  0  0  0  0  0  0
    4.9668    1.5062   -2.5869 O   0  0  0  1  0  0  0  0  0  0  0  0
    2.7977    1.7314   -3.1566 N   0  0  0  1  0  0  0  0  0  0  0  0
    3.0886    2.6440   -4.2473 C   0  0  0  1  0  0  0  0  0  0  0  0
    4.2468    3.5771   -3.9356 C   0  0  0  1  0  0  0  0  0  0  0  0
    5.0110    3.9527   -4.8236 O   0  0  0  1  0  0  0  0  0  0  0  0
    1.8428    3.4220   -4.6184 C   0  0  0  1  0  0  0  0  0  0  0  0
    0.5046    2.2525   -4.9542 S   0  0  0  1  0  0  0  0  0  0  0  0
    4.4099    3.9776   -2.6655 N   0  0  0  1  0  0  0  0  0  0  0  0
    5.4399    4.9294   -2.2767 C   0  0  0  1  0  0  0  0  0  0  0  0
    6.8261    4.2832   -2.1532 C   0  0  0  1  0  0  0  0  0  0  0  0
    6.9215    3.0980   -2.5221 O   0  0  0  1  0  0  0  0  0  0  0  0
    7.7521    4.9948   -1.6925 O   0  0  0  1  0  0  0  0  0  0  0  0
    4.9786    2.7547    0.7954 H   0  0  0  1  0  0  0  0  0  0  0  0
    4.6434    2.4791   -0.7449 H   0  0  0  1  0  0  0  0  0  0  0  0
    4.9705    0.6534    1.3950 H   0  0  0  1  0  0  0  0  0  0  0  0
    6.5598   -1.8756   -0.2843 H   0  0  0  1  0  0  0  0  0  0  0  0
    2.8466    1.1961    0.1091 H   0  0  0  1  0  0  0  0  0  0  0  0
    3.2017   -0.4721    0.4902 H   0  0  0  1  0  0  0  0  0  0  0  0
    2.3819   -0.2531   -1.7732 H   0  0  0  1  0  0  0  0  0  0  0  0
    4.0349   -0.8201   -1.7562 H   0  0  0  1  0  0  0  0  0  0  0  0
    1.8677    1.5391   -2.9148 H   0  0  0  1  0  0  0  0  0  0  0  0
    3.3670    2.0645   -5.1026 H   0  0  0  1  0  0  0  0  0  0  0  0
    2.0333    4.0108   -5.4913 H   0  0  0  1  0  0  0  0  0  0  0  0
    1.5649    4.0635   -3.8084 H   0  0  0  1  0  0  0  0  0  0  0  0
    0.5675    1.8583   -6.2229 H   0  0  0  1  0  0  0  0  0  0  0  0
    3.8148    3.6167   -1.9756 H   0  0  0  1  0  0  0  0  0  0  0  0
    5.1745    5.3537   -1.3310 H   0  0  0  1  0  0  0  0  0  0  0  0
    5.4873    5.7029   -3.0146 H   0  0  0  1  0  0  0  0  0  0  0  0
    7.5719    5.1986   -0.7719 H   0  0  0  1  0  0  0  0  0  0  0  0
  1  2  1  0  0  0  0
  1 21  1  0  0  0  0
  1 22  1  0  0  0  0
  2  3  1  0  0  0  0
  2  6  1  0  0  0  0
  2 23  1  0  0  0  0
  3  4  2  0  0  0  0
  3  5  1  0  0  0  0
  5 24  1  0  0  0  0
  6  7  1  0  0  0  0
  6 25  1  0  0  0  0
  6 26  1  0  0  0  0
  7  8  1  0  0  0  0
  7 27  1  0  0  0  0
  7 28  1  0  0  0  0
  8  9  2  0  0  0  0
  8 10  1  0  0  0  0
 10 11  1  0  0  0  0
 10 29  1  0  0  0  0
 11 12  1  0  0  0  0
 11 14  1  0  0  0  0
 11 30  1  0  0  0  0
 12 13  2  0  0  0  0
 12 16  1  0  0  0  0
 14 15  1  0  0  0  0
 14 31  1  0  0  0  0
 14 32  1  0  0  0  0
 15 33  1  0  0  0  0
 16 17  1  0  0  0  0
 16 34  1  0  0  0  0
 17 18  1  0  0  0  0
 17 35  1  0  0  0  0
 17 36  1  0  0  0  0
 18 19  2  0  0  0  0
 18 20  1  0  0  0  0
 20 37  1  0  0  0  0
M  END
> <ConfClashScore>
0 

> <ConfOneFourInteractionScore>
-0.967044 

> <ConfScore>
0.131864 

> <ConfScorePBest>
0.0179881 

> <ConfTolerance>
1.49353 

$$$$
GSH
  CCTOOLS-1004241126

 37 36  0  0  0  0  0  0  0  0999 V2000
    4.9668    2.1789   -0.1902 N   0  0  0  1  0  0  0  0  0  0  0  0
    4.8409    0.7610    0.2832 C   0  0  0  1  0  0  0  0  0  0  0  0
    6.1621    0.0094    0.0724 C   0  0  0  1  0  0  0  0  0  0  0  0
    6.8840    0.3712   -0.8598 O   0  0  0  1  0  0  0  0  0  0  0  0
    6.3742   -0.9779    0.8289 O   0  0  0  1  0  0  0  0  0  0  0  0
    3.6241    0.1305   -0.3665 C   0  0  0  1  0  0  0  0  0  0  0  0
    2.3122    0.5513    0.2755 C   0  0  0  1  0  0  0  0  0  0  0  0
    2.0024    2.0320    0.0859 C   0  0  0  1  0  0  0  0  0  0  0  0
    2.2823    2.5450   -0.9968 O   0  0  0  1  0  0  0  0  0  0  0  0
    1.4461    2.6926    1.0990 N   0  0  0  1  0  0  0  0  0  0  0  0
    1.1356    4.1142    1.0756 C   0  0  0  1  0  0  0  0  0  0  0  0
    2.4668    4.8578    1.0155 C   0  0  0  1  0  0  0  0  0  0  0  0
    3.3654    4.6380    1.8266 O   0  0  0  1  0  0  0  0  0  0  0  0
    0.3005    4.5084    2.2765 C   0  0  0  1  0  0  0  0  0  0  0  0
    1.3186    4.3686    3.7648 S   0  0  0  1  0  0  0  0  0  0  0  0
    2.5432    5.7472    0.0129 N   0  0  0  1  0  0  0  0  0  0  0  0
    3.7188    6.5939   -0.1248 C   0  0  0  1  0  0  0  0  0  0  0  0
    3.8129    7.7168    0.8783 C   0  0  0  1  0  0  0  0  0  0  0  0
    2.8650    8.1065    1.5249 O   0  0  0  1  0  0  0  0  0  0  0  0
    5.0215    8.2126    0.9661 O   0  0  0  1  0  0  0  0  0  0  0  0
    5.7699    2.5837    0.1993 H   0  0  0  1  0  0  0  0  0  0  0  0
    4.1769    2.6875    0.0886 H   0  0  0  1  0  0  0  0  0  0  0  0
    4.6582    0.7900    1.3371 H   0  0  0  1  0  0  0  0  0  0  0  0
    6.4822   -0.6720    1.7325 H   0  0  0  1  0  0  0  0  0  0  0  0
    3.7126   -0.9332   -0.2917 H   0  0  0  1  0  0  0  0  0  0  0  0
    3.6041    0.4157   -1.3976 H   0  0  0  1  0  0  0  0  0  0  0  0
    2.3650    0.3460    1.3243 H   0  0  0  1  0  0  0  0  0  0  0  0
    1.5205   -0.0210   -0.1610 H   0  0  0  1  0  0  0  0  0  0  0  0
    1.2322    2.1896    1.9124 H   0  0  0  1  0  0  0  0  0  0  0  0
    0.5796    4.3421    0.1903 H   0  0  0  1  0  0  0  0  0  0  0  0
   -0.5445    3.8568    2.3564 H   0  0  0  1  0  0  0  0  0  0  0  0
   -0.0362    5.5178    2.1646 H   0  0  0  1  0  0  0  0  0  0  0  0
    1.3548    5.5422    4.3896 H   0  0  0  1  0  0  0  0  0  0  0  0
    1.8057    5.8266   -0.6276 H   0  0  0  1  0  0  0  0  0  0  0  0
    3.7060    7.0237   -1.1046 H   0  0  0  1  0  0  0  0  0  0  0  0
    4.5868    5.9777   -0.0164 H   0  0  0  1  0  0  0  0  0  0  0  0
    5.6637    7.4999    0.9297 H   0  0  0  1  0  0  0  0  0  0  0  0
  1  2  1  0  0  0  0
  1 21  1  0  0  0  0
  1 22  1  0  0  0  0
  2  3  1  0  0  0  0
  2  6  1  0  0  0  0
  2 23  1  0  0  0  0
  3  4  2  0  0  0  0
  3  5  1  0  0  0  0
  5 24  1  0  0  0  0
  6  7  1  0  0  0  0
  6 25  1  0  0  0  0
  6 26  1  0  0  0  0
  7  8  1  0  0  0  0
  7 27  1  0  0  0  0
  7 28  1  0  0  0  0
  8  9  2  0  0  0  0
  8 10  1  0  0  0  0
 10 11  1  0  0  0  0
 10 29  1  0  0  0  0
 11 12  1  0  0  0  0
 11 14  1  0  0  0  0
 11 30  1  0  0  0  0
 12 13  2  0  0  0  0
 12 16  1  0  0  0  0
 14 15  1  0  0  0  0
 14 31  1  0  0  0  0
 14 32  1  0  0  0  0
 15 33  1  0  0  0  0
 16 17  1  0  0  0  0
 16 34  1  0  0  0  0
 17 18  1  0  0  0  0
 17 35  1  0  0  0  0
 17 36  1  0  0  0  0
 18 19  2  0  0  0  0
 18 20  1  0  0  0  0
 20 37  1  0  0  0  0
M  END
> <ConfClashScore>
0 

> <ConfOneFourInteractionScore>
-0.976542 

> <ConfScore>
0.140339 

> <ConfScorePBest>
0.0176223 

> <ConfTolerance>
0.93772 

$$$$
GSH
  CCTOOLS-1004241126

 37 36  0  0  0  0  0  0  0  0999 V2000
    4.8408    2.2653    0.2802 N   0  0  0  1  0  0  0  0  0  0  0  0
    4.8096    0.7966    0.4385 C   0  0  0  1  0  0  0  0  0  0  0  0
    5.9056    0.2295   -0.4174 C   0  0  0  1  0  0  0  0  0  0  0  0
    6.5487   -0.7515   -0.1240 O   0  0  0  1  0  0  0  0  0  0  0  0
    6.1531    0.8623   -1.5447 O   0  0  0  1  0  0  0  0  0  0  0  0
    3.4949    0.2410   -0.0501 C   0  0  0  1  0  0  0  0  0  0  0  0
    3.2157   -1.2052    0.3255 C   0  0  0  1  0  0  0  0  0  0  0  0
    3.1147   -1.4211    1.8229 C   0  0  0  1  0  0  0  0  0  0  0  0
    2.6517   -0.5561    2.5618 O   0  0  0  1  0  0  0  0  0  0  0  0
    3.5570   -2.5969    2.2697 N   0  0  0  1  0  0  0  0  0  0  0  0
    3.5162   -2.9583    3.6788 C   0  0  0  1  0  0  0  0  0  0  0  0
    4.2043   -1.8667    4.4845 C   0  0  0  1  0  0  0  0  0  0  0  0
    3.6783   -1.3685    5.4662 O   0  0  0  1  0  0  0  0  0  0  0  0
    4.1049   -4.3344    3.9079 C   0  0  0  1  0  0  0  0  0  0  0  0
    5.8192   -4.4777    3.3495 S   0  0  0  1  0  0  0  0  0  0  0  0
    5.4070   -1.5276    4.0119 N   0  0  0  1  0  0  0  0  0  0  0  0
    6.2318   -0.5087    4.6439 C   0  0  0  1  0  0  0  0  0  0  0  0
    7.5505   -0.3088    3.9396 C   0  0  0  1  0  0  0  0  0  0  0  0
    7.8238   -0.8511    2.8842 O   0  0  0  1  0  0  0  0  0  0  0  0
    8.3314    0.5596    4.5267 O   0  0  0  1  0  0  0  0  0  0  0  0
    4.4129    2.5123   -0.5662 H   0  0  0  1  0  0  0  0  0  0  0  0
    5.7710    2.5737    0.2778 H   0  0  0  1  0  0  0  0  0  0  0  0
    4.9643    0.5226    1.4612 H   0  0  0  1  0  0  0  0  0  0  0  0
    6.4279    0.2306   -2.2132 H   0  0  0  1  0  0  0  0  0  0  0  0
    3.4833    0.3124   -1.1177 H   0  0  0  1  0  0  0  0  0  0  0  0
    2.7105    0.8444    0.3568 H   0  0  0  1  0  0  0  0  0  0  0  0
    4.0091   -1.8148   -0.0538 H   0  0  0  1  0  0  0  0  0  0  0  0
    2.2912   -1.5015   -0.1245 H   0  0  0  1  0  0  0  0  0  0  0  0
    3.9224   -3.2400    1.6269 H   0  0  0  1  0  0  0  0  0  0  0  0
    2.4926   -2.9918    3.9890 H   0  0  0  1  0  0  0  0  0  0  0  0
    3.5133   -5.0501    3.3763 H   0  0  0  1  0  0  0  0  0  0  0  0
    4.0695   -4.5493    4.9555 H   0  0  0  1  0  0  0  0  0  0  0  0
    5.8549   -5.1213    2.1861 H   0  0  0  1  0  0  0  0  0  0  0  0
    5.7457   -1.9809    3.2117 H   0  0  0  1  0  0  0  0  0  0  0  0
    6.4245   -0.8028    5.6545 H   0  0  0  1  0  0  0  0  0  0  0  0
    5.6963    0.4176    4.6374 H   0  0  0  1  0  0  0  0  0  0  0  0
    9.1828    0.1545    4.7071 H   0  0  0  1  0  0  0  0  0  0  0  0
  1  2  1  0  0  0  0
  1 21  1  0  0  0  0
  1 22  1  0  0  0  0
  2  3  1  0  0  0  0
  2  6  1  0  0  0  0
  2 23  1  0  0  0  0
  3  4  2  0  0  0  0
  3  5  1  0  0  0  0
  5 24  1  0  0  0  0
  6  7  1  0  0  0  0
  6 25  1  0  0  0  0
  6 26  1  0  0  0  0
  7  8  1  0  0  0  0
  7 27  1  0  0  0  0
  7 28  1  0  0  0  0
  8  9  2  0  0  0  0
  8 10  1  0  0  0  0
 10 11  1  0  0  0  0
 10 29  1  0  0  0  0
 11 12  1  0  0  0  0
 11 14  1  0  0  0  0
 11 30  1  0  0  0  0
 12 13  2  0  0  0  0
 12 16  1  0  0  0  0
 14 15  1  0  0  0  0
 14 31  1  0  0  0  0
 14 32  1  0  0  0  0
 15 33  1  0  0  0  0
 16 17  1  0  0  0  0
 16 34  1  0  0  0  0
 17 18  1  0  0  0  0
 17 35  1  0  0  0  0
 17 36  1  0  0  0  0
 18 19  2  0  0  0  0
 18 20  1  0  0  0  0
 20 37  1  0  0  0  0
M  END
> <ConfClashScore>
0 

> <ConfOneFourInteractionScore>
-0.967267 

> <ConfScore>
0.15551 

> <ConfScorePBest>
0.0172565 

> <ConfTolerance>
1.43439 

$$$$
GSH
  CCTOOLS-1004241126

 37 36  0  0  0  0  0  0  0  0999 V2000
    4.7108    2.2416    0.0830 N   0  0  0  1  0  0  0  0  0  0  0  0
    4.7866    0.8057    0.3474 C   0  0  0  1  0  0  0  0  0  0  0  0
    6.0716    0.1817   -0.1186 C   0  0  0  1  0  0  0  0  0  0  0  0
    6.9000    0.7477   -0.7933 O   0  0  0  1  0  0  0  0  0  0  0  0
    6.2108   -1.0628    0.2859 O   0  0  0  1  0  0  0  0  0  0  0  0
    3.5929    0.0911   -0.2672 C   0  0  0  1  0  0  0  0  0  0  0  0
    3.5766   -1.3746    0.1352 C   0  0  0  1  0  0  0  0  0  0  0  0
    3.4760   -1.5788    1.6414 C   0  0  0  1  0  0  0  0  0  0  0  0
    2.7914   -0.8400    2.3480 O   0  0  0  1  0  0  0  0  0  0  0  0
    4.1935   -2.6192    2.0940 N   0  0  0  1  0  0  0  0  0  0  0  0
    4.2469   -2.9716    3.5050 C   0  0  0  1  0  0  0  0  0  0  0  0
    5.4845   -2.3737    4.1652 C   0  0  0  1  0  0  0  0  0  0  0  0
    6.4370   -1.9771    3.4950 O   0  0  0  1  0  0  0  0  0  0  0  0
    4.2851   -4.4778    3.6623 C   0  0  0  1  0  0  0  0  0  0  0  0
    2.7904   -5.1785    2.9235 S   0  0  0  1  0  0  0  0  0  0  0  0
    5.4586   -2.3134    5.4996 N   0  0  0  1  0  0  0  0  0  0  0  0
    6.6248   -1.9345    6.2834 C   0  0  0  1  0  0  0  0  0  0  0  0
    6.2785   -1.5852    7.7093 C   0  0  0  1  0  0  0  0  0  0  0  0
    5.1688   -1.6680    8.1821 O   0  0  0  1  0  0  0  0  0  0  0  0
    7.3195   -1.1743    8.4014 O   0  0  0  1  0  0  0  0  0  0  0  0
    5.0961    2.4329   -0.7976 H   0  0  0  1  0  0  0  0  0  0  0  0
    5.2120    2.7271    0.7711 H   0  0  0  1  0  0  0  0  0  0  0  0
    4.7291    0.6609    1.4059 H   0  0  0  1  0  0  0  0  0  0  0  0
    7.1394   -1.2452    0.4475 H   0  0  0  1  0  0  0  0  0  0  0  0
    3.6524    0.1616   -1.3332 H   0  0  0  1  0  0  0  0  0  0  0  0
    2.6918    0.5580    0.0719 H   0  0  0  1  0  0  0  0  0  0  0  0
    4.4795   -1.8328   -0.2110 H   0  0  0  1  0  0  0  0  0  0  0  0
    2.7359   -1.8460   -0.3293 H   0  0  0  1  0  0  0  0  0  0  0  0
    4.6988   -3.1602    1.4519 H   0  0  0  1  0  0  0  0  0  0  0  0
    3.3768   -2.5979    4.0031 H   0  0  0  1  0  0  0  0  0  0  0  0
    4.3248   -4.7299    4.7014 H   0  0  0  1  0  0  0  0  0  0  0  0
    5.1488   -4.8693    3.1666 H   0  0  0  1  0  0  0  0  0  0  0  0
    3.1272   -5.9911    1.9259 H   0  0  0  1  0  0  0  0  0  0  0  0
    4.6253   -2.5319    5.9669 H   0  0  0  1  0  0  0  0  0  0  0  0
    7.0841   -1.0841    5.8245 H   0  0  0  1  0  0  0  0  0  0  0  0
    7.3140   -2.7530    6.2892 H   0  0  0  1  0  0  0  0  0  0  0  0
    7.2691   -1.5239    9.2941 H   0  0  0  1  0  0  0  0  0  0  0  0
  1  2  1  0  0  0  0
  1 21  1  0  0  0  0
  1 22  1  0  0  0  0
  2  3  1  0  0  0  0
  2  6  1  0  0  0  0
  2 23  1  0  0  0  0
  3  4  2  0  0  0  0
  3  5  1  0  0  0  0
  5 24  1  0  0  0  0
  6  7  1  0  0  0  0
  6 25  1  0  0  0  0
  6 26  1  0  0  0  0
  7  8  1  0  0  0  0
  7 27  1  0  0  0  0
  7 28  1  0  0  0  0
  8  9  2  0  0  0  0
  8 10  1  0  0  0  0
 10 11  1  0  0  0  0
 10 29  1  0  0  0  0
 11 12  1  0  0  0  0
 11 14  1  0  0  0  0
 11 30  1  0  0  0  0
 12 13  2  0  0  0  0
 12 16  1  0  0  0  0
 14 15  1  0  0  0  0
 14 31  1  0  0  0  0
 14 32  1  0  0  0  0
 15 33  1  0  0  0  0
 16 17  1  0  0  0  0
 16 34  1  0  0  0  0
 17 18  1  0  0  0  0
 17 35  1  0  0  0  0
 17 36  1  0  0  0  0
 18 19  2  0  0  0  0
 18 20  1  0  0  0  0
 20 37  1  0  0  0  0
M  END
> <ConfClashScore>
0.00110893 

> <ConfOneFourInteractionScore>
-0.962871 

> <ConfScore>
0.155549 

> <ConfScorePBest>
0.0168907 

> <ConfTolerance>
1.24421 

$$$$
GSH
  CCTOOLS-1004241126

 37 36  0  0  0  0  0  0  0  0999 V2000
    4.7465    2.2527    0.1843 N   0  0  0  1  0  0  0  0  0  0  0  0
    4.7923    0.7794    0.3975 C   0  0  0  1  0  0  0  0  0  0  0  0
    6.0457    0.2377   -0.2625 C   0  0  0  1  0  0  0  0  0  0  0  0
    6.7464   -0.6143    0.2391 O   0  0  0  1  0  0  0  0  0  0  0  0
    6.3189    0.8552   -1.3843 O   0  0  0  1  0  0  0  0  0  0  0  0
    3.5015    0.1835   -0.1569 C   0  0  0  1  0  0  0  0  0  0  0  0
    3.5088   -1.3311   -0.0289 C   0  0  0  1  0  0  0  0  0  0  0  0
    2.1371   -1.9395   -0.1481 C   0  0  0  1  0  0  0  0  0  0  0  0
    1.2534   -1.6676    0.6635 O   0  0  0  1  0  0  0  0  0  0  0  0
    1.9083   -2.7858   -1.1648 N   0  0  0  1  0  0  0  0  0  0  0  0
    0.6014   -3.3966   -1.4783 C   0  0  0  1  0  0  0  0  0  0  0  0
    0.6246   -4.8822   -1.1538 C   0  0  0  1  0  0  0  0  0  0  0  0
   -0.3831   -5.5778   -1.2740 O   0  0  0  1  0  0  0  0  0  0  0  0
    0.2090   -3.0644   -2.8991 C   0  0  0  1  0  0  0  0  0  0  0  0
    1.2294   -3.9717   -4.0850 S   0  0  0  1  0  0  0  0  0  0  0  0
    1.7976   -5.3669   -0.7365 N   0  0  0  1  0  0  0  0  0  0  0  0
    1.9311   -6.7025   -0.1740 C   0  0  0  1  0  0  0  0  0  0  0  0
    3.2948   -7.3264   -0.3379 C   0  0  0  1  0  0  0  0  0  0  0  0
    4.1983   -6.7016   -0.9180 O   0  0  0  1  0  0  0  0  0  0  0  0
    3.4508   -8.4970    0.1424 O   0  0  0  1  0  0  0  0  0  0  0  0
    4.7365    2.4440   -0.7768 H   0  0  0  1  0  0  0  0  0  0  0  0
    5.5363    2.6661    0.5913 H   0  0  0  1  0  0  0  0  0  0  0  0
    4.8402    0.5775    1.4472 H   0  0  0  1  0  0  0  0  0  0  0  0
    5.5226    1.2701   -1.7239 H   0  0  0  1  0  0  0  0  0  0  0  0
    3.4082    0.4479   -1.1895 H   0  0  0  1  0  0  0  0  0  0  0  0
    2.6702    0.5778    0.3893 H   0  0  0  1  0  0  0  0  0  0  0  0
    3.9143   -1.5901    0.9268 H   0  0  0  1  0  0  0  0  0  0  0  0
    4.1290   -1.7352   -0.8015 H   0  0  0  1  0  0  0  0  0  0  0  0
    2.6660   -3.0154   -1.7424 H   0  0  0  1  0  0  0  0  0  0  0  0
   -0.1285   -2.9462   -0.8385 H   0  0  0  1  0  0  0  0  0  0  0  0
    0.3362   -2.0142   -3.0603 H   0  0  0  1  0  0  0  0  0  0  0  0
   -0.8175   -3.3269   -3.0486 H   0  0  0  1  0  0  0  0  0  0  0  0
    2.3062   -3.2516   -4.3865 H   0  0  0  1  0  0  0  0  0  0  0  0
    2.5959   -4.8035   -0.8118 H   0  0  0  1  0  0  0  0  0  0  0  0
    1.2152   -7.3377   -0.6524 H   0  0  0  1  0  0  0  0  0  0  0  0
    1.7151   -6.6456    0.8724 H   0  0  0  1  0  0  0  0  0  0  0  0
    3.7978   -9.0788   -0.5377 H   0  0  0  1  0  0  0  0  0  0  0  0
  1  2  1  0  0  0  0
  1 21  1  0  0  0  0
  1 22  1  0  0  0  0
  2  3  1  0  0  0  0
  2  6  1  0  0  0  0
  2 23  1  0  0  0  0
  3  4  2  0  0  0  0
  3  5  1  0  0  0  0
  5 24  1  0  0  0  0
  6  7  1  0  0  0  0
  6 25  1  0  0  0  0
  6 26  1  0  0  0  0
  7  8  1  0  0  0  0
  7 27  1  0  0  0  0
  7 28  1  0  0  0  0
  8  9  2  0  0  0  0
  8 10  1  0  0  0  0
 10 11  1  0  0  0  0
 10 29  1  0  0  0  0
 11 12  1  0  0  0  0
 11 14  1  0  0  0  0
 11 30  1  0  0  0  0
 12 13  2  0  0  0  0
 12 16  1  0  0  0  0
 14 15  1  0  0  0  0
 14 31  1  0  0  0  0
 14 32  1  0  0  0  0
 15 33  1  0  0  0  0
 16 17  1  0  0  0  0
 16 34  1  0  0  0  0
 17 18  1  0  0  0  0
 17 35  1  0  0  0  0
 17 36  1  0  0  0  0
 18 19  2  0  0  0  0
 18 20  1  0  0  0  0
 20 37  1  0  0  0  0
M  END
> <ConfClashScore>
0 

> <ConfOneFourInteractionScore>
-0.969467 

> <ConfScore>
0.158579 

> <ConfScorePBest>
0.0165249 

> <ConfTolerance>
1.09312 

$$$$
GSH
  CCTOOLS-1004241126

 37 36  0  0  0  0  0  0  0  0999 V2000
    4.8083    2.2783    0.2587 N   0  0  0  1  0  0  0  0  0  0  0  0
    4.7687    0.7894    0.3416 C   0  0  0  1  0  0  0  0  0  0  0  0
    5.9909    0.2098   -0.3376 C   0  0  0  1  0  0  0  0  0  0  0  0
    6.8859    0.9633   -0.7542 O   0  0  0  1  0  0  0  0  0  0  0  0
    6.0369   -1.0593   -0.4489 O   0  0  0  1  0  0  0  0  0  0  0  0
    3.4573    0.1474   -0.0381 C   0  0  0  1  0  0  0  0  0  0  0  0
    2.9993    0.3905   -1.4669 C   0  0  0  1  0  0  0  0  0  0  0  0
    3.9346   -0.2819   -2.4530 C   0  0  0  1  0  0  0  0  0  0  0  0
    3.9303   -1.5026   -2.6064 O   0  0  0  1  0  0  0  0  0  0  0  0
    4.7540    0.5395   -3.1350 N   0  0  0  1  0  0  0  0  0  0  0  0
    5.8706    0.0431   -3.9253 C   0  0  0  1  0  0  0  0  0  0  0  0
    6.7991    1.1933   -4.3036 C   0  0  0  1  0  0  0  0  0  0  0  0
    7.5226    1.1297   -5.2966 O   0  0  0  1  0  0  0  0  0  0  0  0
    5.3788   -0.6738   -5.1659 C   0  0  0  1  0  0  0  0  0  0  0  0
    4.3246    0.4527   -6.1098 S   0  0  0  1  0  0  0  0  0  0  0  0
    6.7691    2.2526   -3.4935 N   0  0  0  1  0  0  0  0  0  0  0  0
    7.7253    3.3441   -3.6052 C   0  0  0  1  0  0  0  0  0  0  0  0
    7.6408    4.1325   -4.8886 C   0  0  0  1  0  0  0  0  0  0  0  0
    7.0317    3.7464   -5.8626 O   0  0  0  1  0  0  0  0  0  0  0  0
    8.2935    5.2658   -4.8264 O   0  0  0  1  0  0  0  0  0  0  0  0
    4.5649    2.5620   -0.6472 H   0  0  0  1  0  0  0  0  0  0  0  0
    5.7126    2.5929    0.4674 H   0  0  0  1  0  0  0  0  0  0  0  0
    4.8964    0.5613    1.3792 H   0  0  0  1  0  0  0  0  0  0  0  0
    5.2363   -1.3728   -0.8760 H   0  0  0  1  0  0  0  0  0  0  0  0
    2.7025    0.5263    0.6189 H   0  0  0  1  0  0  0  0  0  0  0  0
    3.5549   -0.9090    0.1015 H   0  0  0  1  0  0  0  0  0  0  0  0
    2.9870    1.4433   -1.6570 H   0  0  0  1  0  0  0  0  0  0  0  0
    2.0136   -0.0066   -1.5916 H   0  0  0  1  0  0  0  0  0  0  0  0
    4.5932    1.5055   -3.0981 H   0  0  0  1  0  0  0  0  0  0  0  0
    6.4293   -0.6559   -3.3387 H   0  0  0  1  0  0  0  0  0  0  0  0
    4.8170   -1.5391   -4.8822 H   0  0  0  1  0  0  0  0  0  0  0  0
    6.2143   -0.9709   -5.7646 H   0  0  0  1  0  0  0  0  0  0  0  0
    4.8774    0.6886   -7.2962 H   0  0  0  1  0  0  0  0  0  0  0  0
    6.0792    2.2975   -2.7990 H   0  0  0  1  0  0  0  0  0  0  0  0
    8.7101    2.9320   -3.5324 H   0  0  0  1  0  0  0  0  0  0  0  0
    7.5585    4.0169   -2.7902 H   0  0  0  1  0  0  0  0  0  0  0  0
    9.2107    5.0953   -4.5998 H   0  0  0  1  0  0  0  0  0  0  0  0
  1  2  1  0  0  0  0
  1 21  1  0  0  0  0
  1 22  1  0  0  0  0
  2  3  1  0  0  0  0
  2  6  1  0  0  0  0
  2 23  1  0  0  0  0
  3  4  2  0  0  0  0
  3  5  1  0  0  0  0
  5 24  1  0  0  0  0
  6  7  1  0  0  0  0
  6 25  1  0  0  0  0
  6 26  1  0  0  0  0
  7  8  1  0  0  0  0
  7 27  1  0  0  0  0
  7 28  1  0  0  0  0
  8  9  2  0  0  0  0
  8 10  1  0  0  0  0
 10 11  1  0  0  0  0
 10 29  1  0  0  0  0
 11 12  1  0  0  0  0
 11 14  1  0  0  0  0
 11 30  1  0  0  0  0
 12 13  2  0  0  0  0
 12 16  1  0  0  0  0
 14 15  1  0  0  0  0
 14 31  1  0  0  0  0
 14 32  1  0  0  0  0
 15 33  1  0  0  0  0
 16 17  1  0  0  0  0
 16 34  1  0  0  0  0
 17 18  1  0  0  0  0
 17 35  1  0  0  0  0
 17 36  1  0  0  0  0
 18 19  2  0  0  0  0
 18 20  1  0  0  0  0
 20 37  1  0  0  0  0
M  END
> <ConfClashScore>
0 

> <ConfOneFourInteractionScore>
-0.954233 

> <ConfScore>
0.161565 

> <ConfScorePBest>
0.0161591 

> <ConfTolerance>
1.51785 

$$$$
GSH
  CCTOOLS-1004241126

 37 36  0  0  0  0  0  0  0  0999 V2000
    5.1955    2.2038    0.0514 N   0  0  0  1  0  0  0  0  0  0  0  0
    4.9205    0.7933    0.3232 C   0  0  0  1  0  0  0  0  0  0  0  0
    5.9556   -0.1092   -0.3077 C   0  0  0  1  0  0  0  0  0  0  0  0
    6.8996   -0.5563    0.3013 O   0  0  0  1  0  0  0  0  0  0  0  0
    5.7115   -0.3470   -1.5787 O   0  0  0  1  0  0  0  0  0  0  0  0
    3.5128    0.3751   -0.0557 C   0  0  0  1  0  0  0  0  0  0  0  0
    2.4357    1.2342    0.5863 C   0  0  0  1  0  0  0  0  0  0  0  0
    1.0397    0.6394    0.4528 C   0  0  0  1  0  0  0  0  0  0  0  0
    0.8589   -0.5745    0.4065 O   0  0  0  1  0  0  0  0  0  0  0  0
    0.0706    1.5541    0.3941 N   0  0  0  1  0  0  0  0  0  0  0  0
   -1.3512    1.2570    0.2608 C   0  0  0  1  0  0  0  0  0  0  0  0
   -1.6574    1.1228   -1.2254 C   0  0  0  1  0  0  0  0  0  0  0  0
   -0.7721    0.9102   -2.0375 O   0  0  0  1  0  0  0  0  0  0  0  0
   -2.2085    2.3419    0.8777 C   0  0  0  1  0  0  0  0  0  0  0  0
   -1.8499    2.6245    2.6277 S   0  0  0  1  0  0  0  0  0  0  0  0
   -2.9479    1.2531   -1.5687 N   0  0  0  1  0  0  0  0  0  0  0  0
   -3.3737    0.9683   -2.9296 C   0  0  0  1  0  0  0  0  0  0  0  0
   -4.7643    1.4742   -3.2216 C   0  0  0  1  0  0  0  0  0  0  0  0
   -5.5284    1.8929   -2.3833 O   0  0  0  1  0  0  0  0  0  0  0  0
   -5.0712    1.4148   -4.4999 O   0  0  0  1  0  0  0  0  0  0  0  0
    4.8775    2.7494    0.8009 H   0  0  0  1  0  0  0  0  0  0  0  0
    4.7326    2.4745   -0.7689 H   0  0  0  1  0  0  0  0  0  0  0  0
    5.0044    0.6542    1.3808 H   0  0  0  1  0  0  0  0  0  0  0  0
    4.8932   -0.8423   -1.6607 H   0  0  0  1  0  0  0  0  0  0  0  0
    3.3659   -0.6392    0.2519 H   0  0  0  1  0  0  0  0  0  0  0  0
    3.4129    0.4441   -1.1188 H   0  0  0  1  0  0  0  0  0  0  0  0
    2.4425    2.1958    0.1172 H   0  0  0  1  0  0  0  0  0  0  0  0
    2.6616    1.3427    1.6265 H   0  0  0  1  0  0  0  0  0  0  0  0
    0.3337    2.4968    0.4443 H   0  0  0  1  0  0  0  0  0  0  0  0
   -1.5726    0.3285    0.7444 H   0  0  0  1  0  0  0  0  0  0  0  0
   -3.2359    2.0585    0.7827 H   0  0  0  1  0  0  0  0  0  0  0  0
   -2.0388    3.2538    0.3443 H   0  0  0  1  0  0  0  0  0  0  0  0
   -0.5795    2.3188    2.8756 H   0  0  0  1  0  0  0  0  0  0  0  0
   -3.6048    1.5409   -0.9009 H   0  0  0  1  0  0  0  0  0  0  0  0
   -3.3564   -0.0911   -3.0790 H   0  0  0  1  0  0  0  0  0  0  0  0
   -2.6900    1.4358   -3.6071 H   0  0  0  1  0  0  0  0  0  0  0  0
   -6.0140    1.2623   -4.5963 H   0  0  0  1  0  0  0  0  0  0  0  0
  1  2  1  0  0  0  0
  1 21  1  0  0  0  0
  1 22  1  0  0  0  0
  2  3  1  0  0  0  0
  2  6  1  0  0  0  0
  2 23  1  0  0  0  0
  3  4  2  0  0  0  0
  3  5  1  0  0  0  0
  5 24  1  0  0  0  0
  6  7  1  0  0  0  0
  6 25  1  0  0  0  0
  6 26  1  0  0  0  0
  7  8  1  0  0  0  0
  7 27  1  0  0  0  0
  7 28  1  0  0  0  0
  8  9  2  0  0  0  0
  8 10  1  0  0  0  0
 10 11  1  0  0  0  0
 10 29  1  0  0  0  0
 11 12  1  0  0  0  0
 11 14  1  0  0  0  0
 11 30  1  0  0  0  0
 12 13  2  0  0  0  0
 12 16  1  0  0  0  0
 14 15  1  0  0  0  0
 14 31  1  0  0  0  0
 14 32  1  0  0  0  0
 15 33  1  0  0  0  0
 16 17  1  0  0  0  0
 16 34  1  0  0  0  0
 17 18  1  0  0  0  0
 17 35  1  0  0  0  0
 17 36  1  0  0  0  0
 18 19  2  0  0  0  0
 18 20  1  0  0  0  0
 20 37  1  0  0  0  0
M  END
> <ConfClashScore>
0 

> <ConfOneFourInteractionScore>
-0.949138 

> <ConfScore>
0.177615 

> <ConfScorePBest>
0.0157933 

> <ConfTolerance>
1.25644 

$$$$
GSH
  CCTOOLS-1004241126

 37 36  0  0  0  0  0  0  0  0999 V2000
    4.9239    2.2659    0.3170 N   0  0  0  1  0  0  0  0  0  0  0  0
    4.8416    0.7700    0.3927 C   0  0  0  1  0  0  0  0  0  0  0  0
    5.9150    0.1411   -0.4662 C   0  0  0  1  0  0  0  0  0  0  0  0
    6.7588    0.7875   -1.0482 O   0  0  0  1  0  0  0  0  0  0  0  0
    5.8263   -1.1646   -0.5061 O   0  0  0  1  0  0  0  0  0  0  0  0
    3.4466    0.3451    0.0840 C   0  0  0  1  0  0  0  0  0  0  0  0
    2.7787    0.9496   -1.1440 C   0  0  0  1  0  0  0  0  0  0  0  0
    1.4937    0.2234   -1.5459 C   0  0  0  1  0  0  0  0  0  0  0  0
    0.4163    0.5697   -1.0904 O   0  0  0  1  0  0  0  0  0  0  0  0
    1.6552   -0.7295   -2.4776 N   0  0  0  1  0  0  0  0  0  0  0  0
    0.5893   -1.6520   -2.8390 C   0  0  0  1  0  0  0  0  0  0  0  0
    0.5559   -2.8245   -1.8632 C   0  0  0  1  0  0  0  0  0  0  0  0
    1.4799   -3.6182   -1.7952 O   0  0  0  1  0  0  0  0  0  0  0  0
    0.7613   -2.1472   -4.2603 C   0  0  0  1  0  0  0  0  0  0  0  0
   -0.2599   -3.6220   -4.4906 S   0  0  0  1  0  0  0  0  0  0  0  0
   -0.5444   -2.9166   -1.0996 N   0  0  0  1  0  0  0  0  0  0  0  0
   -0.8448   -4.0211   -0.2008 C   0  0  0  1  0  0  0  0  0  0  0  0
    0.0970   -4.0745    1.0024 C   0  0  0  1  0  0  0  0  0  0  0  0
    0.2295   -5.1572    1.5962 O   0  0  0  1  0  0  0  0  0  0  0  0
    0.6782   -2.9965    1.3065 O   0  0  0  1  0  0  0  0  0  0  0  0
    4.2268    2.6019   -0.2843 H   0  0  0  1  0  0  0  0  0  0  0  0
    5.8041    2.5276   -0.0252 H   0  0  0  1  0  0  0  0  0  0  0  0
    5.0410    0.4895    1.4059 H   0  0  0  1  0  0  0  0  0  0  0  0
    5.5283   -1.4917    0.3458 H   0  0  0  1  0  0  0  0  0  0  0  0
    2.8420    0.5931    0.9313 H   0  0  0  1  0  0  0  0  0  0  0  0
    3.4577   -0.7167   -0.0483 H   0  0  0  1  0  0  0  0  0  0  0  0
    3.4661    0.9038   -1.9628 H   0  0  0  1  0  0  0  0  0  0  0  0
    2.5410    1.9715   -0.9340 H   0  0  0  1  0  0  0  0  0  0  0  0
    2.5211   -0.8065   -2.9302 H   0  0  0  1  0  0  0  0  0  0  0  0
   -0.3491   -1.1416   -2.7775 H   0  0  0  1  0  0  0  0  0  0  0  0
    1.7886   -2.3904   -4.4345 H   0  0  0  1  0  0  0  0  0  0  0  0
    0.4532   -1.3858   -4.9460 H   0  0  0  1  0  0  0  0  0  0  0  0
   -1.1576   -3.3957   -5.4456 H   0  0  0  1  0  0  0  0  0  0  0  0
   -1.1944   -2.1850   -1.1514 H   0  0  0  1  0  0  0  0  0  0  0  0
   -0.7577   -4.9384   -0.7447 H   0  0  0  1  0  0  0  0  0  0  0  0
   -1.8480   -3.9103    0.1543 H   0  0  0  1  0  0  0  0  0  0  0  0
    0.3235   -2.2802    0.7749 H   0  0  0  1  0  0  0  0  0  0  0  0
  1  2  1  0  0  0  0
  1 21  1  0  0  0  0
  1 22  1  0  0  0  0
  2  3  1  0  0  0  0
  2  6  1  0  0  0  0
  2 23  1  0  0  0  0
  3  4  2  0  0  0  0
  3  5  1  0  0  0  0
  5 24  1  0  0  0  0
  6  7  1  0  0  0  0
  6 25  1  0  0  0  0
  6 26  1  0  0  0  0
  7  8  1  0  0  0  0
  7 27  1  0  0  0  0
  7 28  1  0  0  0  0
  8  9  2  0  0  0  0
  8 10  1  0  0  0  0
 10 11  1  0  0  0  0
 10 29  1  0  0  0  0
 11 12  1  0  0  0  0
 11 14  1  0  0  0  0
 11 30  1  0  0  0  0
 12 13  2  0  0  0  0
 12 16  1  0  0  0  0
 14 15  1  0  0  0  0
 14 31  1  0  0  0  0
 14 32  1  0  0  0  0
 15 33  1  0  0  0  0
 16 17  1  0  0  0  0
 16 34  1  0  0  0  0
 17 18  1  0  0  0  0
 17 35  1  0  0  0  0
 17 36  1  0  0  0  0
 18 19  2  0  0  0  0
 18 20  1  0  0  0  0
 20 37  1  0  0  0  0
M  END
> <ConfClashScore>
0 

> <ConfOneFourInteractionScore>
-0.960312 

> <ConfScore>
0.185572 

> <ConfScorePBest>
0.0154275 

> <ConfTolerance>
1.4118 

$$$$
GSH
  CCTOOLS-1004241126

 37 36  0  0  0  0  0  0  0  0999 V2000
    5.0662    2.1963   -0.1537 N   0  0  0  1  0  0  0  0  0  0  0  0
    4.8715    0.7864    0.2818 C   0  0  0  1  0  0  0  0  0  0  0  0
    6.0682   -0.0866   -0.0172 C   0  0  0  1  0  0  0  0  0  0  0  0
    6.5002   -0.2550   -1.1369 O   0  0  0  1  0  0  0  0  0  0  0  0
    6.5752   -0.6311    1.0602 O   0  0  0  1  0  0  0  0  0  0  0  0
    3.6312    0.1465   -0.3117 C   0  0  0  1  0  0  0  0  0  0  0  0
    3.3757    0.5515   -1.7542 C   0  0  0  1  0  0  0  0  0  0  0  0
    4.4950    0.1201   -2.7056 C   0  0  0  1  0  0  0  0  0  0  0  0
    4.8595   -1.0434   -2.6642 O   0  0  0  1  0  0  0  0  0  0  0  0
    4.9833    1.0631   -3.5089 N   0  0  0  1  0  0  0  0  0  0  0  0
    5.9836    0.9001   -4.5666 C   0  0  0  1  0  0  0  0  0  0  0  0
    7.1654    0.0639   -4.0848 C   0  0  0  1  0  0  0  0  0  0  0  0
    7.6958    0.3199   -3.0164 O   0  0  0  1  0  0  0  0  0  0  0  0
    6.4155    2.2730   -5.0370 C   0  0  0  1  0  0  0  0  0  0  0  0
    7.2052    3.2547   -3.7395 S   0  0  0  1  0  0  0  0  0  0  0  0
    7.5118   -0.9877   -4.8439 N   0  0  0  1  0  0  0  0  0  0  0  0
    8.7090   -1.7530   -4.5296 C   0  0  0  1  0  0  0  0  0  0  0  0
    9.4402   -2.3074   -5.7271 C   0  0  0  1  0  0  0  0  0  0  0  0
    8.9644   -2.3261   -6.8415 O   0  0  0  1  0  0  0  0  0  0  0  0
   10.6313   -2.7589   -5.4243 O   0  0  0  1  0  0  0  0  0  0  0  0
    5.6238    2.6667    0.5007 H   0  0  0  1  0  0  0  0  0  0  0  0
    4.1952    2.6407   -0.2199 H   0  0  0  1  0  0  0  0  0  0  0  0
    4.7429    0.7911    1.3440 H   0  0  0  1  0  0  0  0  0  0  0  0
    5.9045   -0.6689    1.7461 H   0  0  0  1  0  0  0  0  0  0  0  0
    2.7856    0.4355    0.2767 H   0  0  0  1  0  0  0  0  0  0  0  0
    3.7465   -0.9166   -0.2732 H   0  0  0  1  0  0  0  0  0  0  0  0
    3.2835    1.6167   -1.7976 H   0  0  0  1  0  0  0  0  0  0  0  0
    2.4610    0.1004   -2.0777 H   0  0  0  1  0  0  0  0  0  0  0  0
    4.6338    1.9692   -3.3776 H   0  0  0  1  0  0  0  0  0  0  0  0
    5.5331    0.3936   -5.3946 H   0  0  0  1  0  0  0  0  0  0  0  0
    5.5519    2.8006   -5.3844 H   0  0  0  1  0  0  0  0  0  0  0  0
    7.1092    2.1536   -5.8428 H   0  0  0  1  0  0  0  0  0  0  0  0
    8.4691    3.4984   -4.0743 H   0  0  0  1  0  0  0  0  0  0  0  0
    6.9573   -1.2406   -5.6113 H   0  0  0  1  0  0  0  0  0  0  0  0
    8.4245   -2.5737   -3.9047 H   0  0  0  1  0  0  0  0  0  0  0  0
    9.3814   -1.1142   -3.9961 H   0  0  0  1  0  0  0  0  0  0  0  0
   11.2962   -2.2459   -5.8893 H   0  0  0  1  0  0  0  0  0  0  0  0
  1  2  1  0  0  0  0
  1 21  1  0  0  0  0
  1 22  1  0  0  0  0
  2  3  1  0  0  0  0
  2  6  1  0  0  0  0
  2 23  1  0  0  0  0
  3  4  2  0  0  0  0
  3  5  1  0  0  0  0
  5 24  1  0  0  0  0
  6  7  1  0  0  0  0
  6 25  1  0  0  0  0
  6 26  1  0  0  0  0
  7  8  1  0  0  0  0
  7 27  1  0  0  0  0
  7 28  1  0  0  0  0
  8  9  2  0  0  0  0
  8 10  1  0  0  0  0
 10 11  1  0  0  0  0
 10 29  1  0  0  0  0
 11 12  1  0  0  0  0
 11 14  1  0  0  0  0
 11 30  1  0  0  0  0
 12 13  2  0  0  0  0
 12 16  1  0  0  0  0
 14 15  1  0  0  0  0
 14 31  1  0  0  0  0
 14 32  1  0  0  0  0
 15 33  1  0  0  0  0
 16 17  1  0  0  0  0
 16 34  1  0  0  0  0
 17 18  1  0  0  0  0
 17 35  1  0  0  0  0
 17 36  1  0  0  0  0
 18 19  2  0  0  0  0
 18 20  1  0  0  0  0
 20 37  1  0  0  0  0
M  END
> <ConfClashScore>
0 

> <ConfOneFourInteractionScore>
-0.955919 

> <ConfScore>
0.197093 

> <ConfScorePBest>
0.0150618 

> <ConfTolerance>
1.34606 

$$$$
GSH
  CCTOOLS-1004241126

 37 36  0  0  0  0  0  0  0  0999 V2000
    5.1640    2.1918   -0.0519 N   0  0  0  1  0  0  0  0  0  0  0  0
    4.8970    0.7824    0.3451 C   0  0  0  1  0  0  0  0  0  0  0  0
    5.9994   -0.1141   -0.2183 C   0  0  0  1  0  0  0  0  0  0  0  0
    5.6290   -0.9553   -1.0406 O   0  0  0  1  0  0  0  0  0  0  0  0
    7.1515    0.0965    0.2089 O   0  0  0  1  0  0  0  0  0  0  0  0
    3.5908    0.3125   -0.1980 C   0  0  0  1  0  0  0  0  0  0  0  0
    2.9767   -0.9330    0.4200 C   0  0  0  1  0  0  0  0  0  0  0  0
    3.7396   -2.2213    0.1802 C   0  0  0  1  0  0  0  0  0  0  0  0
    4.0118   -2.5951   -0.9488 O   0  0  0  1  0  0  0  0  0  0  0  0
    4.0866   -2.9071    1.2808 N   0  0  0  1  0  0  0  0  0  0  0  0
    4.8308   -4.1827    1.2145 C   0  0  0  1  0  0  0  0  0  0  0  0
    4.0411   -5.3131    1.8676 C   0  0  0  1  0  0  0  0  0  0  0  0
    3.4798   -5.1412    2.9371 O   0  0  0  1  0  0  0  0  0  0  0  0
    6.2442   -3.9977    1.7252 C   0  0  0  1  0  0  0  0  0  0  0  0
    7.4960   -4.1521    0.4290 S   0  0  0  1  0  0  0  0  0  0  0  0
    3.9552   -6.4345    1.1346 N   0  0  0  1  0  0  0  0  0  0  0  0
    3.3415   -7.6515    1.6447 C   0  0  0  1  0  0  0  0  0  0  0  0
    3.6995   -8.8846    0.8147 C   0  0  0  1  0  0  0  0  0  0  0  0
    4.2920   -8.7142   -0.2638 O   0  0  0  1  0  0  0  0  0  0  0  0
    3.3611   -9.9987    1.2948 O   0  0  0  1  0  0  0  0  0  0  0  0
    5.2315    2.7505    0.7504 H   0  0  0  1  0  0  0  0  0  0  0  0
    4.4309    2.5167   -0.6152 H   0  0  0  1  0  0  0  0  0  0  0  0
    4.8854    0.7012    1.4120 H   0  0  0  1  0  0  0  0  0  0  0  0
    7.5908    0.7365   -0.3560 H   0  0  0  1  0  0  0  0  0  0  0  0
    3.7301    0.1165   -1.2406 H   0  0  0  1  0  0  0  0  0  0  0  0
    2.8880    1.1100   -0.0752 H   0  0  0  1  0  0  0  0  0  0  0  0
    1.9932   -1.0515    0.0157 H   0  0  0  1  0  0  0  0  0  0  0  0
    2.9122   -0.7795    1.4770 H   0  0  0  1  0  0  0  0  0  0  0  0
    3.8380   -2.5497    2.1588 H   0  0  0  1  0  0  0  0  0  0  0  0
    4.9157   -4.4370    0.1786 H   0  0  0  1  0  0  0  0  0  0  0  0
    6.4355   -4.7391    2.4726 H   0  0  0  1  0  0  0  0  0  0  0  0
    6.3237   -3.0233    2.1602 H   0  0  0  1  0  0  0  0  0  0  0  0
    7.2495   -5.2373   -0.2993 H   0  0  0  1  0  0  0  0  0  0  0  0
    4.3184   -6.4335    0.2244 H   0  0  0  1  0  0  0  0  0  0  0  0
    2.2786   -7.5290    1.6348 H   0  0  0  1  0  0  0  0  0  0  0  0
    3.6738   -7.8071    2.6498 H   0  0  0  1  0  0  0  0  0  0  0  0
    4.0664  -10.3347    1.8527 H   0  0  0  1  0  0  0  0  0  0  0  0
  1  2  1  0  0  0  0
  1 21  1  0  0  0  0
  1 22  1  0  0  0  0
  2  3  1  0  0  0  0
  2  6  1  0  0  0  0
  2 23  1  0  0  0  0
  3  4  2  0  0  0  0
  3  5  1  0  0  0  0
  5 24  1  0  0  0  0
  6  7  1  0  0  0  0
  6 25  1  0  0  0  0
  6 26  1  0  0  0  0
  7  8  1  0  0  0  0
  7 27  1  0  0  0  0
  7 28  1  0  0  0  0
  8  9  2  0  0  0  0
  8 10  1  0  0  0  0
 10 11  1  0  0  0  0
 10 29  1  0  0  0  0
 11 12  1  0  0  0  0
 11 14  1  0  0  0  0
 11 30  1  0  0  0  0
 12 13  2  0  0  0  0
 12 16  1  0  0  0  0
 14 15  1  0  0  0  0
 14 31  1  0  0  0  0
 14 32  1  0  0  0  0
 15 33  1  0  0  0  0
 16 17  1  0  0  0  0
 16 34  1  0  0  0  0
 17 18  1  0  0  0  0
 17 35  1  0  0  0  0
 17 36  1  0  0  0  0
 18 19  2  0  0  0  0
 18 20  1  0  0  0  0
 20 37  1  0  0  0  0
M  END
> <ConfClashScore>
0 

> <ConfOneFourInteractionScore>
-0.958483 

> <ConfScore>
0.23366 

> <ConfScorePBest>
0.014696 

> <ConfTolerance>
1.37249 

$$$$
GSH
  CCTOOLS-1004241126

 37 36  0  0  0  0  0  0  0  0999 V2000
    4.8073    2.2549    0.2523 N   0  0  0  1  0  0  0  0  0  0  0  0
    4.7898    0.7813    0.4139 C   0  0  0  1  0  0  0  0  0  0  0  0
    5.9887    0.2619   -0.3692 C   0  0  0  1  0  0  0  0  0  0  0  0
    6.6100    1.0585   -1.0834 O   0  0  0  1  0  0  0  0  0  0  0  0
    6.2619   -0.9619   -0.2279 O   0  0  0  1  0  0  0  0  0  0  0  0
    3.4677    0.2331   -0.0628 C   0  0  0  1  0  0  0  0  0  0  0  0
    3.1935   -1.2182    0.2964 C   0  0  0  1  0  0  0  0  0  0  0  0
    2.0461   -1.8675   -0.4527 C   0  0  0  1  0  0  0  0  0  0  0  0
    2.2506   -2.6719   -1.3609 O   0  0  0  1  0  0  0  0  0  0  0  0
    0.8144   -1.5068   -0.0593 N   0  0  0  1  0  0  0  0  0  0  0  0
   -0.3557   -2.0381   -0.7422 C   0  0  0  1  0  0  0  0  0  0  0  0
   -0.2534   -3.5434   -0.8937 C   0  0  0  1  0  0  0  0  0  0  0  0
   -0.5880   -4.1044   -1.9362 O   0  0  0  1  0  0  0  0  0  0  0  0
   -0.4286   -1.3978   -2.1317 C   0  0  0  1  0  0  0  0  0  0  0  0
   -2.1802   -1.2251   -2.5479 S   0  0  0  1  0  0  0  0  0  0  0  0
    0.2181   -4.2029    0.1683 N   0  0  0  1  0  0  0  0  0  0  0  0
    0.2367   -5.6565    0.2354 C   0  0  0  1  0  0  0  0  0  0  0  0
   -0.5716   -6.1956    1.3892 C   0  0  0  1  0  0  0  0  0  0  0  0
   -1.4990   -5.6148    1.9033 O   0  0  0  1  0  0  0  0  0  0  0  0
   -0.1625   -7.3806    1.7893 O   0  0  0  1  0  0  0  0  0  0  0  0
    4.5125    2.4882   -0.6527 H   0  0  0  1  0  0  0  0  0  0  0  0
    5.7177    2.5882    0.3953 H   0  0  0  1  0  0  0  0  0  0  0  0
    4.9153    0.5334    1.4472 H   0  0  0  1  0  0  0  0  0  0  0  0
    6.5714   -1.3197   -1.0632 H   0  0  0  1  0  0  0  0  0  0  0  0
    3.4402    0.3196   -1.1289 H   0  0  0  1  0  0  0  0  0  0  0  0
    2.6898    0.8309    0.3642 H   0  0  0  1  0  0  0  0  0  0  0  0
    2.9723   -1.2632    1.3423 H   0  0  0  1  0  0  0  0  0  0  0  0
    4.0804   -1.7815    0.0943 H   0  0  0  1  0  0  0  0  0  0  0  0
    0.7029   -0.8844    0.6894 H   0  0  0  1  0  0  0  0  0  0  0  0
   -1.2443   -1.7979   -0.1967 H   0  0  0  1  0  0  0  0  0  0  0  0
    0.0590   -2.0235   -2.8499 H   0  0  0  1  0  0  0  0  0  0  0  0
    0.0415   -0.4367   -2.1177 H   0  0  0  1  0  0  0  0  0  0  0  0
   -2.4577   -1.9664   -3.6167 H   0  0  0  1  0  0  0  0  0  0  0  0
    0.5634   -3.6898    0.9286 H   0  0  0  1  0  0  0  0  0  0  0  0
    1.2502   -5.9811    0.3462 H   0  0  0  1  0  0  0  0  0  0  0  0
   -0.1656   -6.0464   -0.6761 H   0  0  0  1  0  0  0  0  0  0  0  0
   -0.8251   -8.0395    1.5695 H   0  0  0  1  0  0  0  0  0  0  0  0
  1  2  1  0  0  0  0
  1 21  1  0  0  0  0
  1 22  1  0  0  0  0
  2  3  1  0  0  0  0
  2  6  1  0  0  0  0
  2 23  1  0  0  0  0
  3  4  2  0  0  0  0
  3  5  1  0  0  0  0
  5 24  1  0  0  0  0
  6  7  1  0  0  0  0
  6 25  1  0  0  0  0
  6 26  1  0  0  0  0
  7  8  1  0  0  0  0
  7 27  1  0  0  0  0
  7 28  1  0  0  0  0
  8  9  2  0  0  0  0
  8 10  1  0  0  0  0
 10 11  1  0  0  0  0
 10 29  1  0  0  0  0
 11 12  1  0  0  0  0
 11 14  1  0  0  0  0
 11 30  1  0  0  0  0
 12 13  2  0  0  0  0
 12 16  1  0  0  0  0
 14 15  1  0  0  0  0
 14 31  1  0  0  0  0
 14 32  1  0  0  0  0
 15 33  1  0  0  0  0
 16 17  1  0  0  0  0
 16 34  1  0  0  0  0
 17 18  1  0  0  0  0
 17 35  1  0  0  0  0
 17 36  1  0  0  0  0
 18 19  2  0  0  0  0
 18 20  1  0  0  0  0
 20 37  1  0  0  0  0
M  END
> <ConfClashScore>
0 

> <ConfOneFourInteractionScore>
-0.95223 

> <ConfScore>
0.253988 

> <ConfScorePBest>
0.0143302 

> <ConfTolerance>
1.35207 

$$$$
GSH
  CCTOOLS-1004241126

 37 36  0  0  0  0  0  0  0  0999 V2000
    5.1212    2.1829   -0.1114 N   0  0  0  1  0  0  0  0  0  0  0  0
    4.8902    0.7712    0.3118 C   0  0  0  1  0  0  0  0  0  0  0  0
    6.0654   -0.0896   -0.1066 C   0  0  0  1  0  0  0  0  0  0  0  0
    7.1243    0.3657   -0.4744 O   0  0  0  1  0  0  0  0  0  0  0  0
    5.7690   -1.3666   -0.1017 O   0  0  0  1  0  0  0  0  0  0  0  0
    3.5804    0.2614   -0.2578 C   0  0  0  1  0  0  0  0  0  0  0  0
    2.4668    0.3700    0.7710 C   0  0  0  1  0  0  0  0  0  0  0  0
    2.3059    1.7342    1.4130 C   0  0  0  1  0  0  0  0  0  0  0  0
    2.8294    2.7351    0.9254 O   0  0  0  1  0  0  0  0  0  0  0  0
    1.5688    1.7684    2.5243 N   0  0  0  1  0  0  0  0  0  0  0  0
    1.3080    2.9622    3.3147 C   0  0  0  1  0  0  0  0  0  0  0  0
    0.7748    4.0952    2.4449 C   0  0  0  1  0  0  0  0  0  0  0  0
    1.0137    5.2700    2.7116 O   0  0  0  1  0  0  0  0  0  0  0  0
    2.5128    3.3966    4.1225 C   0  0  0  1  0  0  0  0  0  0  0  0
    3.0517    2.1548    5.3219 S   0  0  0  1  0  0  0  0  0  0  0  0
    0.0426    3.7228    1.3912 N   0  0  0  1  0  0  0  0  0  0  0  0
   -0.4799    4.5742    0.3329 C   0  0  0  1  0  0  0  0  0  0  0  0
    0.5931    5.3997   -0.3321 C   0  0  0  1  0  0  0  0  0  0  0  0
    1.7700    5.1147   -0.2859 O   0  0  0  1  0  0  0  0  0  0  0  0
    0.1095    6.4446   -0.9556 O   0  0  0  1  0  0  0  0  0  0  0  0
    5.4354    2.7069    0.6548 H   0  0  0  1  0  0  0  0  0  0  0  0
    4.2831    2.5646   -0.4463 H   0  0  0  1  0  0  0  0  0  0  0  0
    4.8232    0.7436    1.3794 H   0  0  0  1  0  0  0  0  0  0  0  0
    5.1690   -1.5535    0.6240 H   0  0  0  1  0  0  0  0  0  0  0  0
    3.6968   -0.7636   -0.5420 H   0  0  0  1  0  0  0  0  0  0  0  0
    3.3216    0.8432   -1.1177 H   0  0  0  1  0  0  0  0  0  0  0  0
    2.6646   -0.3390    1.5476 H   0  0  0  1  0  0  0  0  0  0  0  0
    1.5452    0.1220    0.2873 H   0  0  0  1  0  0  0  0  0  0  0  0
    1.1731    0.9262    2.8316 H   0  0  0  1  0  0  0  0  0  0  0  0
    0.5370    2.7231    4.0170 H   0  0  0  1  0  0  0  0  0  0  0  0
    2.2628    4.2931    4.6504 H   0  0  0  1  0  0  0  0  0  0  0  0
    3.3210    3.5921    3.4492 H   0  0  0  1  0  0  0  0  0  0  0  0
    2.1497    1.1795    5.3868 H   0  0  0  1  0  0  0  0  0  0  0  0
   -0.1664    2.7677    1.3233 H   0  0  0  1  0  0  0  0  0  0  0  0
   -1.2087    5.2350    0.7537 H   0  0  0  1  0  0  0  0  0  0  0  0
   -0.9435    3.9554   -0.4067 H   0  0  0  1  0  0  0  0  0  0  0  0
    0.6383    6.6250   -1.7363 H   0  0  0  1  0  0  0  0  0  0  0  0
  1  2  1  0  0  0  0
  1 21  1  0  0  0  0
  1 22  1  0  0  0  0
  2  3  1  0  0  0  0
  2  6  1  0  0  0  0
  2 23  1  0  0  0  0
  3  4  2  0  0  0  0
  3  5  1  0  0  0  0
  5 24  1  0  0  0  0
  6  7  1  0  0  0  0
  6 25  1  0  0  0  0
  6 26  1  0  0  0  0
  7  8  1  0  0  0  0
  7 27  1  0  0  0  0
  7 28  1  0  0  0  0
  8  9  2  0  0  0  0
  8 10  1  0  0  0  0
 10 11  1  0  0  0  0
 10 29  1  0  0  0  0
 11 12  1  0  0  0  0
 11 14  1  0  0  0  0
 11 30  1  0  0  0  0
 12 13  2  0  0  0  0
 12 16  1  0  0  0  0
 14 15  1  0  0  0  0
 14 31  1  0  0  0  0
 14 32  1  0  0  0  0
 15 33  1  0  0  0  0
 16 17  1  0  0  0  0
 16 34  1  0  0  0  0
 17 18  1  0  0  0  0
 17 35  1  0  0  0  0
 17 36  1  0  0  0  0
 18 19  2  0  0  0  0
 18 20  1  0  0  0  0
 20 37  1  0  0  0  0
M  END
> <ConfClashScore>
0 

> <ConfOneFourInteractionScore>
-0.95277 

> <ConfScore>
0.267918 

> <ConfScorePBest>
0.0139644 

> <ConfTolerance>
1.43206 

$$$$
GSH
  CCTOOLS-1004241126

 37 36  0  0  0  0  0  0  0  0999 V2000
    5.1569    2.1979   -0.0640 N   0  0  0  1  0  0  0  0  0  0  0  0
    4.9064    0.7809    0.3200 C   0  0  0  1  0  0  0  0  0  0  0  0
    6.0183   -0.1251   -0.1786 C   0  0  0  1  0  0  0  0  0  0  0  0
    7.1744   -0.0332    0.1140 O   0  0  0  1  0  0  0  0  0  0  0  0
    5.5124   -1.0322   -0.9867 O   0  0  0  1  0  0  0  0  0  0  0  0
    3.5700    0.2917   -0.2042 C   0  0  0  1  0  0  0  0  0  0  0  0
    3.1123   -1.0097    0.4339 C   0  0  0  1  0  0  0  0  0  0  0  0
    1.9390   -1.6443   -0.2871 C   0  0  0  1  0  0  0  0  0  0  0  0
    0.7834   -1.4463    0.0787 O   0  0  0  1  0  0  0  0  0  0  0  0
    2.2492   -2.4200   -1.3297 N   0  0  0  1  0  0  0  0  0  0  0  0
    1.1691   -3.0983   -2.0228 C   0  0  0  1  0  0  0  0  0  0  0  0
    0.2738   -3.8877   -1.0803 C   0  0  0  1  0  0  0  0  0  0  0  0
   -0.9095   -4.0568   -1.3243 O   0  0  0  1  0  0  0  0  0  0  0  0
    1.7292   -3.9824   -3.1139 C   0  0  0  1  0  0  0  0  0  0  0  0
    2.8226   -5.3055   -2.5438 S   0  0  0  1  0  0  0  0  0  0  0  0
    0.8701   -4.3753    0.0183 N   0  0  0  1  0  0  0  0  0  0  0  0
    0.2222   -5.2146    1.0151 C   0  0  0  1  0  0  0  0  0  0  0  0
   -0.6384   -6.2895    0.3993 C   0  0  0  1  0  0  0  0  0  0  0  0
   -0.8604   -6.3578   -0.7901 O   0  0  0  1  0  0  0  0  0  0  0  0
   -1.1099   -7.1270    1.2885 O   0  0  0  1  0  0  0  0  0  0  0  0
    5.2688    2.7409    0.7442 H   0  0  0  1  0  0  0  0  0  0  0  0
    4.3960    2.5354   -0.5812 H   0  0  0  1  0  0  0  0  0  0  0  0
    4.8826    0.7193    1.3879 H   0  0  0  1  0  0  0  0  0  0  0  0
    5.1082   -0.5988   -1.7419 H   0  0  0  1  0  0  0  0  0  0  0  0
    3.6546    0.1404   -1.2601 H   0  0  0  1  0  0  0  0  0  0  0  0
    2.8334    1.0428   -0.0089 H   0  0  0  1  0  0  0  0  0  0  0  0
    2.8234   -0.8102    1.4447 H   0  0  0  1  0  0  0  0  0  0  0  0
    3.9304   -1.6993    0.4258 H   0  0  0  1  0  0  0  0  0  0  0  0
    3.1795   -2.5280   -1.6184 H   0  0  0  1  0  0  0  0  0  0  0  0
    0.5589   -2.3574   -2.4958 H   0  0  0  1  0  0  0  0  0  0  0  0
    2.2817   -3.3643   -3.7903 H   0  0  0  1  0  0  0  0  0  0  0  0
    0.9072   -4.4317   -3.6310 H   0  0  0  1  0  0  0  0  0  0  0  0
    2.4761   -5.6680   -1.3120 H   0  0  0  1  0  0  0  0  0  0  0  0
    1.8131   -4.1491    0.1602 H   0  0  0  1  0  0  0  0  0  0  0  0
   -0.3932   -4.5967    1.6351 H   0  0  0  1  0  0  0  0  0  0  0  0
    0.9771   -5.6811    1.6128 H   0  0  0  1  0  0  0  0  0  0  0  0
   -1.7041   -6.6627    1.8826 H   0  0  0  1  0  0  0  0  0  0  0  0
  1  2  1  0  0  0  0
  1 21  1  0  0  0  0
  1 22  1  0  0  0  0
  2  3  1  0  0  0  0
  2  6  1  0  0  0  0
  2 23  1  0  0  0  0
  3  4  2  0  0  0  0
  3  5  1  0  0  0  0
  5 24  1  0  0  0  0
  6  7  1  0  0  0  0
  6 25  1  0  0  0  0
  6 26  1  0  0  0  0
  7  8  1  0  0  0  0
  7 27  1  0  0  0  0
  7 28  1  0  0  0  0
  8  9  2  0  0  0  0
  8 10  1  0  0  0  0
 10 11  1  0  0  0  0
 10 29  1  0  0  0  0
 11 12  1  0  0  0  0
 11 14  1  0  0  0  0
 11 30  1  0  0  0  0
 12 13  2  0  0  0  0
 12 16  1  0  0  0  0
 14 15  1  0  0  0  0
 14 31  1  0  0  0  0
 14 32  1  0  0  0  0
 15 33  1  0  0  0  0
 16 17  1  0  0  0  0
 16 34  1  0  0  0  0
 17 18  1  0  0  0  0
 17 35  1  0  0  0  0
 17 36  1  0  0  0  0
 18 19  2  0  0  0  0
 18 20  1  0  0  0  0
 20 37  1  0  0  0  0
M  END
> <ConfClashScore>
0 

> <ConfOneFourInteractionScore>
-0.958707 

> <ConfScore>
0.271465 

> <ConfScorePBest>
0.0135986 

> <ConfTolerance>
1.38667 

$$$$
GSH
  CCTOOLS-1004241126

 37 36  0  0  0  0  0  0  0  0999 V2000
    5.1034    2.2599    0.2816 N   0  0  0  1  0  0  0  0  0  0  0  0
    4.8979    0.7906    0.4164 C   0  0  0  1  0  0  0  0  0  0  0  0
    5.8277    0.0276   -0.5278 C   0  0  0  1  0  0  0  0  0  0  0  0
    6.7931   -0.5774   -0.0836 O   0  0  0  1  0  0  0  0  0  0  0  0
    5.4670    0.1151   -1.7473 O   0  0  0  1  0  0  0  0  0  0  0  0
    3.4625    0.3996    0.1002 C   0  0  0  1  0  0  0  0  0  0  0  0
    2.8333    1.2489   -0.9921 C   0  0  0  1  0  0  0  0  0  0  0  0
    2.1177    2.4972   -0.5138 C   0  0  0  1  0  0  0  0  0  0  0  0
    1.6917    2.5852    0.6260 O   0  0  0  1  0  0  0  0  0  0  0  0
    1.9902    3.4796   -1.4197 N   0  0  0  1  0  0  0  0  0  0  0  0
    1.4533    4.7881   -1.0771 C   0  0  0  1  0  0  0  0  0  0  0  0
    0.1767    5.1182   -1.8449 C   0  0  0  1  0  0  0  0  0  0  0  0
    0.2092    5.0502   -3.0728 O   0  0  0  1  0  0  0  0  0  0  0  0
    2.5201    5.8635   -1.2892 C   0  0  0  1  0  0  0  0  0  0  0  0
    1.7826    7.4463   -0.8183 S   0  0  0  1  0  0  0  0  0  0  0  0
   -0.9045    5.4621   -1.1485 N   0  0  0  1  0  0  0  0  0  0  0  0
   -2.1344    5.9029   -1.7896 C   0  0  0  1  0  0  0  0  0  0  0  0
   -3.2010    6.2923   -0.7959 C   0  0  0  1  0  0  0  0  0  0  0  0
   -3.0550    6.2735    0.4070 O   0  0  0  1  0  0  0  0  0  0  0  0
   -4.3195    6.6591   -1.3691 O   0  0  0  1  0  0  0  0  0  0  0  0
    4.2355    2.7146    0.2987 H   0  0  0  1  0  0  0  0  0  0  0  0
    5.5547    2.4498   -0.5674 H   0  0  0  1  0  0  0  0  0  0  0  0
    5.1173    0.4990    1.4223 H   0  0  0  1  0  0  0  0  0  0  0  0
    5.2056    1.0185   -1.9401 H   0  0  0  1  0  0  0  0  0  0  0  0
    2.8782    0.5046    0.9904 H   0  0  0  1  0  0  0  0  0  0  0  0
    3.4511   -0.6226   -0.2160 H   0  0  0  1  0  0  0  0  0  0  0  0
    2.1240    0.6418   -1.5150 H   0  0  0  1  0  0  0  0  0  0  0  0
    3.6094    1.5503   -1.6641 H   0  0  0  1  0  0  0  0  0  0  0  0
    2.2683    3.3097   -2.3440 H   0  0  0  1  0  0  0  0  0  0  0  0
    1.2071    4.7859   -0.0358 H   0  0  0  1  0  0  0  0  0  0  0  0
    2.8165    5.8883   -2.3170 H   0  0  0  1  0  0  0  0  0  0  0  0
    3.3732    5.6596   -0.6763 H   0  0  0  1  0  0  0  0  0  0  0  0
    0.8868    7.2497    0.1448 H   0  0  0  1  0  0  0  0  0  0  0  0
   -0.8711    5.4167   -0.1701 H   0  0  0  1  0  0  0  0  0  0  0  0
   -2.5079    5.1060   -2.3980 H   0  0  0  1  0  0  0  0  0  0  0  0
   -1.9148    6.7498   -2.4055 H   0  0  0  1  0  0  0  0  0  0  0  0
   -5.0435    6.1294   -1.0271 H   0  0  0  1  0  0  0  0  0  0  0  0
  1  2  1  0  0  0  0
  1 21  1  0  0  0  0
  1 22  1  0  0  0  0
  2  3  1  0  0  0  0
  2  6  1  0  0  0  0
  2 23  1  0  0  0  0
  3  4  2  0  0  0  0
  3  5  1  0  0  0  0
  5 24  1  0  0  0  0
  6  7  1  0  0  0  0
  6 25  1  0  0  0  0
  6 26  1  0  0  0  0
  7  8  1  0  0  0  0
  7 27  1  0  0  0  0
  7 28  1  0  0  0  0
  8  9  2  0  0  0  0
  8 10  1  0  0  0  0
 10 11  1  0  0  0  0
 10 29  1  0  0  0  0
 11 12  1  0  0  0  0
 11 14  1  0  0  0  0
 11 30  1  0  0  0  0
 12 13  2  0  0  0  0
 12 16  1  0  0  0  0
 14 15  1  0  0  0  0
 14 31  1  0  0  0  0
 14 32  1  0  0  0  0
 15 33  1  0  0  0  0
 16 17  1  0  0  0  0
 16 34  1  0  0  0  0
 17 18  1  0  0  0  0
 17 35  1  0  0  0  0
 17 36  1  0  0  0  0
 18 19  2  0  0  0  0
 18 20  1  0  0  0  0
 20 37  1  0  0  0  0
M  END
> <ConfClashScore>
0 

> <ConfOneFourInteractionScore>
-0.931438 

> <ConfScore>
0.271804 

> <ConfScorePBest>
0.0132328 

> <ConfTolerance>
1.63385 

$$$$
GSH
  CCTOOLS-1004241126

 37 36  0  0  0  0  0  0  0  0999 V2000
    5.1803    2.2265    0.1728 N   0  0  0  1  0  0  0  0  0  0  0  0
    4.9200    0.7778    0.3996 C   0  0  0  1  0  0  0  0  0  0  0  0
    5.8874   -0.0346   -0.4617 C   0  0  0  1  0  0  0  0  0  0  0  0
    6.2186    0.4266   -1.5662 O   0  0  0  1  0  0  0  0  0  0  0  0
    6.2828   -1.1306    0.0227 O   0  0  0  1  0  0  0  0  0  0  0  0
    3.4830    0.4554    0.0373 C   0  0  0  1  0  0  0  0  0  0  0  0
    2.4969    0.7634    1.1523 C   0  0  0  1  0  0  0  0  0  0  0  0
    2.4786    2.2288    1.5411 C   0  0  0  1  0  0  0  0  0  0  0  0
    2.1457    3.0986    0.7372 O   0  0  0  1  0  0  0  0  0  0  0  0
    2.8455    2.5019    2.8032 N   0  0  0  1  0  0  0  0  0  0  0  0
    2.7476    3.8391    3.3692 C   0  0  0  1  0  0  0  0  0  0  0  0
    3.6965    4.0380    4.5410 C   0  0  0  1  0  0  0  0  0  0  0  0
    4.3550    3.0989    4.9861 O   0  0  0  1  0  0  0  0  0  0  0  0
    1.3267    4.2435    3.7012 C   0  0  0  1  0  0  0  0  0  0  0  0
    0.4556    3.0216    4.7107 S   0  0  0  1  0  0  0  0  0  0  0  0
    3.7926    5.2588    5.0699 N   0  0  0  1  0  0  0  0  0  0  0  0
    4.6108    5.6054    6.2224 C   0  0  0  1  0  0  0  0  0  0  0  0
    4.0808    5.0216    7.5085 C   0  0  0  1  0  0  0  0  0  0  0  0
    2.8620    4.9936    7.7193 O   0  0  0  1  0  0  0  0  0  0  0  0
    4.9439    4.5751    8.3336 O   0  0  0  1  0  0  0  0  0  0  0  0
    4.4976    2.7576    0.6335 H   0  0  0  1  0  0  0  0  0  0  0  0
    5.1489    2.4173   -0.7879 H   0  0  0  1  0  0  0  0  0  0  0  0
    5.0818    0.5410    1.4304 H   0  0  0  1  0  0  0  0  0  0  0  0
    5.8830   -1.8574   -0.4606 H   0  0  0  1  0  0  0  0  0  0  0  0
    3.4174   -0.5869   -0.1953 H   0  0  0  1  0  0  0  0  0  0  0  0
    3.2128    1.0311   -0.8232 H   0  0  0  1  0  0  0  0  0  0  0  0
    2.7643    0.1860    2.0126 H   0  0  0  1  0  0  0  0  0  0  0  0
    1.5164    0.4853    0.8262 H   0  0  0  1  0  0  0  0  0  0  0  0
    3.1914    1.7756    3.3629 H   0  0  0  1  0  0  0  0  0  0  0  0
    3.0735    4.5182    2.6093 H   0  0  0  1  0  0  0  0  0  0  0  0
    0.7880    4.3747    2.7861 H   0  0  0  1  0  0  0  0  0  0  0  0
    1.3531    5.1699    4.2361 H   0  0  0  1  0  0  0  0  0  0  0  0
    0.9497    1.8111    4.4673 H   0  0  0  1  0  0  0  0  0  0  0  0
    3.2731    5.9763    4.6507 H   0  0  0  1  0  0  0  0  0  0  0  0
    4.6372    6.6710    6.3154 H   0  0  0  1  0  0  0  0  0  0  0  0
    5.6022    5.2362    6.0618 H   0  0  0  1  0  0  0  0  0  0  0  0
    5.7467    5.0979    8.2719 H   0  0  0  1  0  0  0  0  0  0  0  0
  1  2  1  0  0  0  0
  1 21  1  0  0  0  0
  1 22  1  0  0  0  0
  2  3  1  0  0  0  0
  2  6  1  0  0  0  0
  2 23  1  0  0  0  0
  3  4  2  0  0  0  0
  3  5  1  0  0  0  0
  5 24  1  0  0  0  0
  6  7  1  0  0  0  0
  6 25  1  0  0  0  0
  6 26  1  0  0  0  0
  7  8  1  0  0  0  0
  7 27  1  0  0  0  0
  7 28  1  0  0  0  0
  8  9  2  0  0  0  0
  8 10  1  0  0  0  0
 10 11  1  0  0  0  0
 10 29  1  0  0  0  0
 11 12  1  0  0  0  0
 11 14  1  0  0  0  0
 11 30  1  0  0  0  0
 12 13  2  0  0  0  0
 12 16  1  0  0  0  0
 14 15  1  0  0  0  0
 14 31  1  0  0  0  0
 14 32  1  0  0  0  0
 15 33  1  0  0  0  0
 16 17  1  0  0  0  0
 16 34  1  0  0  0  0
 17 18  1  0  0  0  0
 17 35  1  0  0  0  0
 17 36  1  0  0  0  0
 18 19  2  0  0  0  0
 18 20  1  0  0  0  0
 20 37  1  0  0  0  0
M  END
> <ConfClashScore>
0 

> <ConfOneFourInteractionScore>
-0.958229 

> <ConfScore>
0.296404 

> <ConfScorePBest>
0.012867 

> <ConfTolerance>
1.55387 

$$$$
GSH
  CCTOOLS-1004241126

 37 36  0  0  0  0  0  0  0  0999 V2000
    4.7346    2.2611    0.1621 N   0  0  0  1  0  0  0  0  0  0  0  0
    4.7787    0.7886    0.3809 C   0  0  0  1  0  0  0  0  0  0  0  0
    6.0522    0.2118   -0.2334 C   0  0  0  1  0  0  0  0  0  0  0  0
    6.5692   -0.7782    0.3097 O   0  0  0  1  0  0  0  0  0  0  0  0
    6.4903    0.7943   -1.2634 O   0  0  0  1  0  0  0  0  0  0  0  0
    3.5301    0.1377   -0.1826 C   0  0  0  1  0  0  0  0  0  0  0  0
    3.3717    0.3352   -1.6814 C   0  0  0  1  0  0  0  0  0  0  0  0
    1.9823   -0.0083   -2.1822 C   0  0  0  1  0  0  0  0  0  0  0  0
    1.7593   -1.0600   -2.7590 O   0  0  0  1  0  0  0  0  0  0  0  0
    1.0339    0.9126   -1.9485 N   0  0  0  1  0  0  0  0  0  0  0  0
   -0.3686    0.6881   -2.2799 C   0  0  0  1  0  0  0  0  0  0  0  0
   -0.9763   -0.3862   -1.3990 C   0  0  0  1  0  0  0  0  0  0  0  0
   -1.8669   -1.1227   -1.8146 O   0  0  0  1  0  0  0  0  0  0  0  0
   -0.5759    0.3896   -3.7498 C   0  0  0  1  0  0  0  0  0  0  0  0
    0.0172    1.7091   -4.8353 S   0  0  0  1  0  0  0  0  0  0  0  0
   -0.4818   -0.4705   -0.1637 N   0  0  0  1  0  0  0  0  0  0  0  0
   -1.0477   -1.3688    0.8465 C   0  0  0  1  0  0  0  0  0  0  0  0
   -0.0513   -1.6116    1.9524 C   0  0  0  1  0  0  0  0  0  0  0  0
   -0.2728   -1.3411    3.1127 O   0  0  0  1  0  0  0  0  0  0  0  0
    1.0701   -2.1440    1.5146 O   0  0  0  1  0  0  0  0  0  0  0  0
    4.8324    2.4528   -0.7940 H   0  0  0  1  0  0  0  0  0  0  0  0
    5.4657    2.6866    0.6568 H   0  0  0  1  0  0  0  0  0  0  0  0
    4.8053    0.6024    1.4342 H   0  0  0  1  0  0  0  0  0  0  0  0
    7.3377    0.4161   -1.5094 H   0  0  0  1  0  0  0  0  0  0  0  0
    2.6772    0.5593    0.3071 H   0  0  0  1  0  0  0  0  0  0  0  0
    3.5746   -0.9123    0.0184 H   0  0  0  1  0  0  0  0  0  0  0  0
    4.0793   -0.2906   -2.1840 H   0  0  0  1  0  0  0  0  0  0  0  0
    3.5735    1.3601   -1.9131 H   0  0  0  1  0  0  0  0  0  0  0  0
    1.2930    1.7654   -1.5411 H   0  0  0  1  0  0  0  0  0  0  0  0
   -0.8979    1.5947   -2.0731 H   0  0  0  1  0  0  0  0  0  0  0  0
   -1.6223    0.2504   -3.9242 H   0  0  0  1  0  0  0  0  0  0  0  0
   -0.0507   -0.5109   -3.9912 H   0  0  0  1  0  0  0  0  0  0  0  0
    0.3837    1.1913   -6.0042 H   0  0  0  1  0  0  0  0  0  0  0  0
    0.2869    0.0876    0.0772 H   0  0  0  1  0  0  0  0  0  0  0  0
   -1.2987   -2.3020    0.3871 H   0  0  0  1  0  0  0  0  0  0  0  0
   -1.9299   -0.9247    1.2582 H   0  0  0  1  0  0  0  0  0  0  0  0
    0.9801   -3.0992    1.4823 H   0  0  0  1  0  0  0  0  0  0  0  0
  1  2  1  0  0  0  0
  1 21  1  0  0  0  0
  1 22  1  0  0  0  0
  2  3  1  0  0  0  0
  2  6  1  0  0  0  0
  2 23  1  0  0  0  0
  3  4  2  0  0  0  0
  3  5  1  0  0  0  0
  5 24  1  0  0  0  0
  6  7  1  0  0  0  0
  6 25  1  0  0  0  0
  6 26  1  0  0  0  0
  7  8  1  0  0  0  0
  7 27  1  0  0  0  0
  7 28  1  0  0  0  0
  8  9  2  0  0  0  0
  8 10  1  0  0  0  0
 10 11  1  0  0  0  0
 10 29  1  0  0  0  0
 11 12  1  0  0  0  0
 11 14  1  0  0  0  0
 11 30  1  0  0  0  0
 12 13  2  0  0  0  0
 12 16  1  0  0  0  0
 14 15  1  0  0  0  0
 14 31  1  0  0  0  0
 14 32  1  0  0  0  0
 15 33  1  0  0  0  0
 16 17  1  0  0  0  0
 16 34  1  0  0  0  0
 17 18  1  0  0  0  0
 17 35  1  0  0  0  0
 17 36  1  0  0  0  0
 18 19  2  0  0  0  0
 18 20  1  0  0  0  0
 20 37  1  0  0  0  0
M  END
> <ConfClashScore>
0 

> <ConfOneFourInteractionScore>
-0.926827 

> <ConfScore>
0.309116 

> <ConfScorePBest>
0.0125012 

> <ConfTolerance>
1.55401 

$$$$
GSH
  CCTOOLS-1004241126

 37 36  0  0  0  0  0  0  0  0999 V2000
    4.8275    2.2650    0.2676 N   0  0  0  1  0  0  0  0  0  0  0  0
    4.7807    0.7821    0.3974 C   0  0  0  1  0  0  0  0  0  0  0  0
    5.9526    0.2553   -0.3815 C   0  0  0  1  0  0  0  0  0  0  0  0
    6.3747   -0.8778   -0.3000 O   0  0  0  1  0  0  0  0  0  0  0  0
    6.4834    1.1549   -1.1710 O   0  0  0  1  0  0  0  0  0  0  0  0
    3.4729    0.2119   -0.0346 C   0  0  0  1  0  0  0  0  0  0  0  0
    2.2339    0.5918    0.7708 C   0  0  0  1  0  0  0  0  0  0  0  0
    2.2949   -0.0037    2.1639 C   0  0  0  1  0  0  0  0  0  0  0  0
    2.1347   -1.2092    2.3505 O   0  0  0  1  0  0  0  0  0  0  0  0
    2.5320    0.8649    3.1596 N   0  0  0  1  0  0  0  0  0  0  0  0
    2.7030    0.4372    4.5401 C   0  0  0  1  0  0  0  0  0  0  0  0
    1.3899   -0.1815    5.0069 C   0  0  0  1  0  0  0  0  0  0  0  0
    1.4352   -1.2789    5.5612 O   0  0  0  1  0  0  0  0  0  0  0  0
    3.0206    1.5824    5.4750 C   0  0  0  1  0  0  0  0  0  0  0  0
    1.9210    3.0118    5.3385 S   0  0  0  1  0  0  0  0  0  0  0  0
    0.2642    0.4958    4.7912 N   0  0  0  1  0  0  0  0  0  0  0  0
   -1.0482   -0.0703    5.0652 C   0  0  0  1  0  0  0  0  0  0  0  0
   -1.5219   -0.9955    3.9722 C   0  0  0  1  0  0  0  0  0  0  0  0
   -1.4171   -0.6576    2.7867 O   0  0  0  1  0  0  0  0  0  0  0  0
   -2.0200   -2.1098    4.3406 O   0  0  0  1  0  0  0  0  0  0  0  0
    4.4836    2.5275   -0.6118 H   0  0  0  1  0  0  0  0  0  0  0  0
    5.7535    2.5718    0.3608 H   0  0  0  1  0  0  0  0  0  0  0  0
    4.9282    0.5274    1.4261 H   0  0  0  1  0  0  0  0  0  0  0  0
    5.7984    1.5437   -1.7199 H   0  0  0  1  0  0  0  0  0  0  0  0
    3.5619   -0.8538   -0.0005 H   0  0  0  1  0  0  0  0  0  0  0  0
    3.3059    0.5242   -1.0443 H   0  0  0  1  0  0  0  0  0  0  0  0
    1.3632    0.2236    0.2696 H   0  0  0  1  0  0  0  0  0  0  0  0
    2.1783    1.6577    0.8470 H   0  0  0  1  0  0  0  0  0  0  0  0
    2.5921    1.8202    2.9496 H   0  0  0  1  0  0  0  0  0  0  0  0
    3.4813   -0.2940    4.6070 H   0  0  0  1  0  0  0  0  0  0  0  0
    4.0180    1.9108    5.2697 H   0  0  0  1  0  0  0  0  0  0  0  0
    2.9647    1.2159    6.4787 H   0  0  0  1  0  0  0  0  0  0  0  0
    0.8369    2.8106    6.0821 H   0  0  0  1  0  0  0  0  0  0  0  0
    0.3214    1.4072    4.4357 H   0  0  0  1  0  0  0  0  0  0  0  0
   -1.7518    0.7296    5.1655 H   0  0  0  1  0  0  0  0  0  0  0  0
   -0.9993   -0.6200    5.9819 H   0  0  0  1  0  0  0  0  0  0  0  0
   -1.3235   -2.7677    4.4012 H   0  0  0  1  0  0  0  0  0  0  0  0
  1  2  1  0  0  0  0
  1 21  1  0  0  0  0
  1 22  1  0  0  0  0
  2  3  1  0  0  0  0
  2  6  1  0  0  0  0
  2 23  1  0  0  0  0
  3  4  2  0  0  0  0
  3  5  1  0  0  0  0
  5 24  1  0  0  0  0
  6  7  1  0  0  0  0
  6 25  1  0  0  0  0
  6 26  1  0  0  0  0
  7  8  1  0  0  0  0
  7 27  1  0  0  0  0
  7 28  1  0  0  0  0
  8  9  2  0  0  0  0
  8 10  1  0  0  0  0
 10 11  1  0  0  0  0
 10 29  1  0  0  0  0
 11 12  1  0  0  0  0
 11 14  1  0  0  0  0
 11 30  1  0  0  0  0
 12 13  2  0  0  0  0
 12 16  1  0  0  0  0
 14 15  1  0  0  0  0
 14 31  1  0  0  0  0
 14 32  1  0  0  0  0
 15 33  1  0  0  0  0
 16 17  1  0  0  0  0
 16 34  1  0  0  0  0
 17 18  1  0  0  0  0
 17 35  1  0  0  0  0
 17 36  1  0  0  0  0
 18 19  2  0  0  0  0
 18 20  1  0  0  0  0
 20 37  1  0  0  0  0
M  END
> <ConfClashScore>
0 

> <ConfOneFourInteractionScore>
-0.959461 

> <ConfScore>
0.309378 

> <ConfScorePBest>
0.0121354 

> <ConfTolerance>
1.43954 

$$$$
GSH
  CCTOOLS-1004241126

 37 36  0  0  0  0  0  0  0  0999 V2000
    4.8813    2.1803   -0.1850 N   0  0  0  1  0  0  0  0  0  0  0  0
    4.8133    0.7607    0.3010 C   0  0  0  1  0  0  0  0  0  0  0  0
    6.1691    0.0837    0.0981 C   0  0  0  1  0  0  0  0  0  0  0  0
    6.6451   -0.5705    1.0403 O   0  0  0  1  0  0  0  0  0  0  0  0
    6.7112    0.2434   -1.0301 O   0  0  0  1  0  0  0  0  0  0  0  0
    3.6556    0.0889   -0.3949 C   0  0  0  1  0  0  0  0  0  0  0  0
    3.5058   -1.3998   -0.1269 C   0  0  0  1  0  0  0  0  0  0  0  0
    2.3359   -2.0213   -0.8647 C   0  0  0  1  0  0  0  0  0  0  0  0
    2.5085   -2.7313   -1.8417 O   0  0  0  1  0  0  0  0  0  0  0  0
    1.1193   -1.7380   -0.3728 N   0  0  0  1  0  0  0  0  0  0  0  0
   -0.1288   -2.1938   -0.9663 C   0  0  0  1  0  0  0  0  0  0  0  0
   -0.6611   -3.4749   -0.3935 C   0  0  0  1  0  0  0  0  0  0  0  0
   -0.2758   -3.9651    0.6551 O   0  0  0  1  0  0  0  0  0  0  0  0
   -0.0092   -2.3353   -2.4698 C   0  0  0  1  0  0  0  0  0  0  0  0
    0.4518   -0.7330   -3.1706 S   0  0  0  1  0  0  0  0  0  0  0  0
   -1.6132   -4.0827   -1.1071 N   0  0  0  1  0  0  0  0  0  0  0  0
   -2.1850   -5.3609   -0.7110 C   0  0  0  1  0  0  0  0  0  0  0  0
   -3.1599   -5.9174   -1.7490 C   0  0  0  1  0  0  0  0  0  0  0  0
   -3.2287   -5.3510   -2.8525 O   0  0  0  1  0  0  0  0  0  0  0  0
   -3.8310   -6.9249   -1.4015 O   0  0  0  1  0  0  0  0  0  0  0  0
    5.7984    2.5136   -0.0942 H   0  0  0  1  0  0  0  0  0  0  0  0
    4.2771    2.7374    0.3488 H   0  0  0  1  0  0  0  0  0  0  0  0
    4.6040    0.7764    1.3502 H   0  0  0  1  0  0  0  0  0  0  0  0
    7.6638    0.1632   -0.9422 H   0  0  0  1  0  0  0  0  0  0  0  0
    3.7819    0.2230   -1.4489 H   0  0  0  1  0  0  0  0  0  0  0  0
    2.7553    0.5729   -0.0786 H   0  0  0  1  0  0  0  0  0  0  0  0
    3.3614   -1.5440    0.9234 H   0  0  0  1  0  0  0  0  0  0  0  0
    4.4037   -1.8934   -0.4351 H   0  0  0  1  0  0  0  0  0  0  0  0
    1.0685   -1.1893    0.4376 H   0  0  0  1  0  0  0  0  0  0  0  0
   -0.8684   -1.4423   -0.7847 H   0  0  0  1  0  0  0  0  0  0  0  0
   -0.9475   -2.6494   -2.8772 H   0  0  0  1  0  0  0  0  0  0  0  0
    0.7424   -3.0599   -2.7042 H   0  0  0  1  0  0  0  0  0  0  0  0
    1.6037   -0.8496   -3.8251 H   0  0  0  1  0  0  0  0  0  0  0  0
   -1.9378   -3.6527   -1.9258 H   0  0  0  1  0  0  0  0  0  0  0  0
   -2.7073   -5.2305    0.2137 H   0  0  0  1  0  0  0  0  0  0  0  0
   -1.3902   -6.0644   -0.5762 H   0  0  0  1  0  0  0  0  0  0  0  0
   -3.4237   -7.3318   -0.6333 H   0  0  0  1  0  0  0  0  0  0  0  0
  1  2  1  0  0  0  0
  1 21  1  0  0  0  0
  1 22  1  0  0  0  0
  2  3  1  0  0  0  0
  2  6  1  0  0  0  0
  2 23  1  0  0  0  0
  3  4  2  0  0  0  0
  3  5  1  0  0  0  0
  5 24  1  0  0  0  0
  6  7  1  0  0  0  0
  6 25  1  0  0  0  0
  6 26  1  0  0  0  0
  7  8  1  0  0  0  0
  7 27  1  0  0  0  0
  7 28  1  0  0  0  0
  8  9  2  0  0  0  0
  8 10  1  0  0  0  0
 10 11  1  0  0  0  0
 10 29  1  0  0  0  0
 11 12  1  0  0  0  0
 11 14  1  0  0  0  0
 11 30  1  0  0  0  0
 12 13  2  0  0  0  0
 12 16  1  0  0  0  0
 14 15  1  0  0  0  0
 14 31  1  0  0  0  0
 14 32  1  0  0  0  0
 15 33  1  0  0  0  0
 16 17  1  0  0  0  0
 16 34  1  0  0  0  0
 17 18  1  0  0  0  0
 17 35  1  0  0  0  0
 17 36  1  0  0  0  0
 18 19  2  0  0  0  0
 18 20  1  0  0  0  0
 20 37  1  0  0  0  0
M  END
> <ConfClashScore>
0.000195261 

> <ConfOneFourInteractionScore>
-0.959114 

> <ConfScore>
0.322989 

> <ConfScorePBest>
0.0117696 

> <ConfTolerance>
1.57307 

$$$$
GSH
  CCTOOLS-1004241126

 37 36  0  0  0  0  0  0  0  0999 V2000
    5.1865    2.2016    0.0486 N   0  0  0  1  0  0  0  0  0  0  0  0
    4.9474    0.7920    0.3612 C   0  0  0  1  0  0  0  0  0  0  0  0
    5.9355   -0.1278   -0.3235 C   0  0  0  1  0  0  0  0  0  0  0  0
    5.8272   -1.3541   -0.2005 O   0  0  0  1  0  0  0  0  0  0  0  0
    6.8541    0.4280   -1.0110 O   0  0  0  1  0  0  0  0  0  0  0  0
    3.5484    0.4340   -0.1022 C   0  0  0  1  0  0  0  0  0  0  0  0
    3.2712    0.8301   -1.5433 C   0  0  0  1  0  0  0  0  0  0  0  0
    1.9819    0.2619   -2.0734 C   0  0  0  1  0  0  0  0  0  0  0  0
    1.0098    0.9345   -2.3609 O   0  0  0  1  0  0  0  0  0  0  0  0
    1.9460   -1.0632   -2.2216 N   0  0  0  1  0  0  0  0  0  0  0  0
    0.7977   -1.8170   -2.7023 C   0  0  0  1  0  0  0  0  0  0  0  0
    0.3522   -1.3828   -4.0888 C   0  0  0  1  0  0  0  0  0  0  0  0
   -0.8128   -1.0660   -4.3139 O   0  0  0  1  0  0  0  0  0  0  0  0
   -0.3374   -1.7207   -1.7081 C   0  0  0  1  0  0  0  0  0  0  0  0
   -0.1428   -2.7316   -0.2211 S   0  0  0  1  0  0  0  0  0  0  0  0
    1.3075   -1.3712   -5.0309 N   0  0  0  1  0  0  0  0  0  0  0  0
    1.0064   -0.8794   -6.3781 C   0  0  0  1  0  0  0  0  0  0  0  0
    0.7744   -2.0346   -7.3208 C   0  0  0  1  0  0  0  0  0  0  0  0
    0.8373   -1.9268   -8.5262 O   0  0  0  1  0  0  0  0  0  0  0  0
    0.5014   -3.1499   -6.6917 O   0  0  0  1  0  0  0  0  0  0  0  0
    4.8710    2.7592    0.7902 H   0  0  0  1  0  0  0  0  0  0  0  0
    4.7024    2.4413   -0.7690 H   0  0  0  1  0  0  0  0  0  0  0  0
    5.0078    0.6405    1.4187 H   0  0  0  1  0  0  0  0  0  0  0  0
    7.1903    1.1927   -0.5379 H   0  0  0  1  0  0  0  0  0  0  0  0
    2.8437    0.9343    0.5287 H   0  0  0  1  0  0  0  0  0  0  0  0
    3.4211   -0.6244   -0.0108 H   0  0  0  1  0  0  0  0  0  0  0  0
    4.0756    0.4771   -2.1542 H   0  0  0  1  0  0  0  0  0  0  0  0
    3.2216    1.8974   -1.5996 H   0  0  0  1  0  0  0  0  0  0  0  0
    2.7537   -1.5672   -1.9893 H   0  0  0  1  0  0  0  0  0  0  0  0
    1.0779   -2.8477   -2.7651 H   0  0  0  1  0  0  0  0  0  0  0  0
   -1.2366   -2.0262   -2.2011 H   0  0  0  1  0  0  0  0  0  0  0  0
   -0.4262   -0.6985   -1.4045 H   0  0  0  1  0  0  0  0  0  0  0  0
   -0.2763   -1.9650    0.8575 H   0  0  0  1  0  0  0  0  0  0  0  0
    2.2085   -1.6924   -4.8177 H   0  0  0  1  0  0  0  0  0  0  0  0
    1.8301   -0.2955   -6.7323 H   0  0  0  1  0  0  0  0  0  0  0  0
    0.1266   -0.2714   -6.3428 H   0  0  0  1  0  0  0  0  0  0  0  0
    1.3024   -3.6714   -6.6017 H   0  0  0  1  0  0  0  0  0  0  0  0
  1  2  1  0  0  0  0
  1 21  1  0  0  0  0
  1 22  1  0  0  0  0
  2  3  1  0  0  0  0
  2  6  1  0  0  0  0
  2 23  1  0  0  0  0
  3  4  2  0  0  0  0
  3  5  1  0  0  0  0
  5 24  1  0  0  0  0
  6  7  1  0  0  0  0
  6 25  1  0  0  0  0
  6 26  1  0  0  0  0
  7  8  1  0  0  0  0
  7 27  1  0  0  0  0
  7 28  1  0  0  0  0
  8  9  2  0  0  0  0
  8 10  1  0  0  0  0
 10 11  1  0  0  0  0
 10 29  1  0  0  0  0
 11 12  1  0  0  0  0
 11 14  1  0  0  0  0
 11 30  1  0  0  0  0
 12 13  2  0  0  0  0
 12 16  1  0  0  0  0
 14 15  1  0  0  0  0
 14 31  1  0  0  0  0
 14 32  1  0  0  0  0
 15 33  1  0  0  0  0
 16 17  1  0  0  0  0
 16 34  1  0  0  0  0
 17 18  1  0  0  0  0
 17 35  1  0  0  0  0
 17 36  1  0  0  0  0
 18 19  2  0  0  0  0
 18 20  1  0  0  0  0
 20 37  1  0  0  0  0
M  END
> <ConfClashScore>
0 

> <ConfOneFourInteractionScore>
-0.962246 

> <ConfScore>
0.349733 

> <ConfScorePBest>
0.0114038 

> <ConfTolerance>
1.88267 

$$$$
GSH
  CCTOOLS-1004241126

 37 36  0  0  0  0  0  0  0  0999 V2000
    5.1922    2.1955    0.0477 N   0  0  0  1  0  0  0  0  0  0  0  0
    4.9268    0.7639    0.3608 C   0  0  0  1  0  0  0  0  0  0  0  0
    5.9725   -0.0762   -0.3255 C   0  0  0  1  0  0  0  0  0  0  0  0
    6.2148   -1.2272   -0.0460 O   0  0  0  1  0  0  0  0  0  0  0  0
    6.6079    0.5757   -1.2757 O   0  0  0  1  0  0  0  0  0  0  0  0
    3.5089    0.4454   -0.0729 C   0  0  0  1  0  0  0  0  0  0  0  0
    2.5291    0.6973    1.0614 C   0  0  0  1  0  0  0  0  0  0  0  0
    2.6626   -0.3721    2.1380 C   0  0  0  1  0  0  0  0  0  0  0  0
    2.2148   -1.5069    1.9787 O   0  0  0  1  0  0  0  0  0  0  0  0
    3.3016    0.0494    3.2408 N   0  0  0  1  0  0  0  0  0  0  0  0
    3.5604   -0.8397    4.3906 C   0  0  0  1  0  0  0  0  0  0  0  0
    3.9553   -0.0205    5.6095 C   0  0  0  1  0  0  0  0  0  0  0  0
    3.6631   -0.3870    6.7471 O   0  0  0  1  0  0  0  0  0  0  0  0
    4.5548   -1.9114    3.9963 C   0  0  0  1  0  0  0  0  0  0  0  0
    3.7732   -3.3903    3.3088 S   0  0  0  1  0  0  0  0  0  0  0  0
    4.6290    1.1032    5.3591 N   0  0  0  1  0  0  0  0  0  0  0  0
    5.0808    1.9445    6.4573 C   0  0  0  1  0  0  0  0  0  0  0  0
    6.3670    1.4540    7.0745 C   0  0  0  1  0  0  0  0  0  0  0  0
    6.6306    0.2786    7.2064 O   0  0  0  1  0  0  0  0  0  0  0  0
    7.1525    2.4338    7.4452 O   0  0  0  1  0  0  0  0  0  0  0  0
    4.8615    2.7572    0.7795 H   0  0  0  1  0  0  0  0  0  0  0  0
    4.7330    2.4384   -0.7834 H   0  0  0  1  0  0  0  0  0  0  0  0
    5.0041    0.6168    1.4179 H   0  0  0  1  0  0  0  0  0  0  0  0
    6.0030    0.7593   -1.9982 H   0  0  0  1  0  0  0  0  0  0  0  0
    3.4533   -0.5831   -0.3627 H   0  0  0  1  0  0  0  0  0  0  0  0
    3.2490    1.0656   -0.9053 H   0  0  0  1  0  0  0  0  0  0  0  0
    1.5319    0.6821    0.6736 H   0  0  0  1  0  0  0  0  0  0  0  0
    2.7301    1.6559    1.4923 H   0  0  0  1  0  0  0  0  0  0  0  0
    3.6068    0.9796    3.2842 H   0  0  0  1  0  0  0  0  0  0  0  0
    2.6431   -1.3364    4.6291 H   0  0  0  1  0  0  0  0  0  0  0  0
    5.1123   -2.1940    4.8648 H   0  0  0  1  0  0  0  0  0  0  0  0
    5.2190   -1.5053    3.2622 H   0  0  0  1  0  0  0  0  0  0  0  0
    3.3691   -3.1420    2.0662 H   0  0  0  1  0  0  0  0  0  0  0  0
    4.8202    1.3627    4.4336 H   0  0  0  1  0  0  0  0  0  0  0  0
    4.3224    1.9586    7.2120 H   0  0  0  1  0  0  0  0  0  0  0  0
    5.2351    2.9366    6.0874 H   0  0  0  1  0  0  0  0  0  0  0  0
    7.7842    2.6197    6.7467 H   0  0  0  1  0  0  0  0  0  0  0  0
  1  2  1  0  0  0  0
  1 21  1  0  0  0  0
  1 22  1  0  0  0  0
  2  3  1  0  0  0  0
  2  6  1  0  0  0  0
  2 23  1  0  0  0  0
  3  4  2  0  0  0  0
  3  5  1  0  0  0  0
  5 24  1  0  0  0  0
  6  7  1  0  0  0  0
  6 25  1  0  0  0  0
  6 26  1  0  0  0  0
  7  8  1  0  0  0  0
  7 27  1  0  0  0  0
  7 28  1  0  0  0  0
  8  9  2  0  0  0  0
  8 10  1  0  0  0  0
 10 11  1  0  0  0  0
 10 29  1  0  0  0  0
 11 12  1  0  0  0  0
 11 14  1  0  0  0  0
 11 30  1  0  0  0  0
 12 13  2  0  0  0  0
 12 16  1  0  0  0  0
 14 15  1  0  0  0  0
 14 31  1  0  0  0  0
 14 32  1  0  0  0  0
 15 33  1  0  0  0  0
 16 17  1  0  0  0  0
 16 34  1  0  0  0  0
 17 18  1  0  0  0  0
 17 35  1  0  0  0  0
 17 36  1  0  0  0  0
 18 19  2  0  0  0  0
 18 20  1  0  0  0  0
 20 37  1  0  0  0  0
M  END
> <ConfClashScore>
0 

> <ConfOneFourInteractionScore>
-0.948311 

> <ConfScore>
0.438853 

> <ConfScorePBest>
0.011038 

> <ConfTolerance>
2.18265 

$$$$
